23
ts1
C       -3.4540310       -2.3125720       -2.3783280
C       -2.6484620       -1.2140610       -2.1248630
C       -1.2817370       -1.3881750       -1.8052890
C       -0.7359930       -2.7015840       -1.7430050
C       -1.5666500       -3.8004590       -2.0101620
C       -2.9086790       -3.6100130       -2.3256530
H       -0.8460010        0.7266180       -1.6443600
H       -4.5048180       -2.1756690       -2.6164760
H       -3.0544940       -0.2069890       -2.1627590
C       -0.4192810       -0.2706040       -1.5809180
C        0.6556620       -2.8830690       -1.3108270
H       -1.1521080       -4.8047890       -1.9664640
H       -3.5406770       -4.4694830       -2.5319950
C        1.4997340       -1.7043370       -1.2634000
C        0.9240020       -0.4134360       -1.3216100
O        2.7848470       -1.9319800       -1.1128840
H        3.3712970       -1.1699880       -0.6930750
C        0.5265830       -3.3977120        0.4689250
C        1.7864770       -3.5613210        1.1126860
H       -0.1013210       -2.6068430        0.8702980
H       -0.0099340       -4.3310210        0.3073620
H        2.3863200       -4.4577930        1.0365160
N        2.4000970       -2.5189750        1.7423790
O        3.5523060       -2.6631680        2.2532760
O        1.8004110       -1.3840780        1.8120120
C        1.4191220        1.9512200        1.0045510
O        1.2818340        3.1035890        0.5896490
N        0.3658000        1.2010560        1.5764190
N        2.5858890        1.2531810        0.9780280
H        2.5584910        0.2684640        1.2431730
H        0.6353070        0.2828760        1.9120830
C       -0.9820140        1.2830590        1.2397830
C       -1.7841530        0.1607270        1.5261770
C       -1.5746020        2.3916420        0.6104280
C       -3.1262470        0.1367470        1.1641140
H       -1.3360850       -0.7026510        2.0076710
C       -2.9246310        2.3430440        0.2568920
H       -0.9767560        3.2643940        0.3906410
C       -3.7186950        1.2258690        0.5198120
H       -4.7614370        1.2013620        0.2317920
C        3.8243400        1.7607610        0.3930400
C        4.9537990        0.7626210        0.7191920
C        3.7460930        2.0086590       -1.1248740
H        4.0738890        2.7117130        0.8807220
C        6.2911170        1.3088140        0.1913330
H        5.0125880        0.6645370        1.8082640
C        5.0805220        2.5731490       -1.6375470
H        3.5446590        1.0570750       -1.6320750
H        2.9186510        2.6903100       -1.3378860
C        6.2379850        1.6148730       -1.3154760
H        7.0865010        0.5884140        0.4184190
H        6.5179890        2.2323450        0.7388900
H        5.0207760        2.7509060       -2.7176280
H        5.2698150        3.5437440       -1.1570460
H        7.1948890        2.0417970       -1.6372110
H        6.1004340        0.6827810       -1.8826080
N        4.6464410       -0.5967230        0.1579620
H        5.4098440       -0.8926550       -0.4454890
H        4.6117950       -1.2691090        0.9255430
H        1.1538740       -3.7694170       -1.6999360
H        1.5596640        0.4528920       -1.2039680
C       -3.9481670       -1.0827480        1.5121580
C       -3.5026140        3.5145270       -0.5041290
F       -3.0315080        4.7103190       -0.0563980
F       -3.1791060        3.4444990       -1.8347130
F       -4.8594090        3.5710960       -0.4382180
F       -5.0675580       -1.1972550        0.7500570
F       -4.3631280       -1.0485440        2.8158190
F       -3.2440450       -2.2403640        1.3634080

