23
bp2
Si       0.000000      0.000000      0.000000
O       0.196370     -0.014148     -1.769285
C      -0.400760     -0.782229     -2.668815
C       0.073806     -0.605905     -4.066379
H      -1.483043     -0.886936     -2.556305
C       1.348135     -0.087339     -4.346443
C      -0.782046     -0.964494     -5.119132
C       1.753977      0.079824     -5.669754
H       2.006075      0.183894     -3.527136
C      -0.372214     -0.794862     -6.442274
H      -1.768315     -1.365704     -4.897614
C       0.896595     -0.273747     -6.719702
H       2.738466      0.486015     -5.885757
H      -1.040870     -1.065023     -7.254693
H       1.216237     -0.142505     -7.749839
C      -0.000201     -2.676414     -2.398419
C       0.070184     -2.607098     -1.032783
H      -0.883558     -3.123489     -2.853074
H       0.930378     -2.858664     -2.936205
C       0.138530     -2.060374      0.106823
H       0.275302     -2.460231      1.101331
Cl      -2.227780      0.034490     -0.114763
Cl      -0.039053      0.124745      2.252212
