23
bp3
Si       0.000000      0.000000      0.000000
O       0.208795     -0.056811     -1.764964
C      -0.518808     -0.087209     -2.866478
C      -0.159116     -1.099969     -3.890211
H      -0.759473      0.898981     -3.279868
C       0.569526     -2.252479     -3.556641
C      -0.560037     -0.883313     -5.219049
C       0.896173     -3.174354     -4.550896
H       0.870850     -2.410637     -2.526548
C      -0.228056     -1.806109     -6.209720
H      -1.127953      0.009460     -5.471139
C       0.498990     -2.955260     -5.875929
H       1.462604     -4.065400     -4.294462
H      -0.532867     -1.631864     -7.237769
H       0.756780     -3.676757     -6.646473
C      -2.440849     -0.543125     -2.595970
C      -2.483080     -0.182655     -1.281291
H      -2.862960      0.128021     -3.341983
H      -2.536264     -1.603999     -2.826427
C      -2.049598      0.092284     -0.124207
H      -2.558275      0.270876      0.812641
Cl      -0.152995      0.250408      2.248054
Cl       0.000066     -2.230030      0.174297
