23
bp4
Si       0.000000      0.000000      0.000000
O      -0.045136     -1.762403      0.070045
C       0.817867     -2.629023     -0.455344
C       0.478569     -4.064681     -0.257454
H       1.875008     -2.391671     -0.306043
C      -0.842789     -4.485453     -0.041509
C       1.515513     -5.008986     -0.300483
C      -1.117338     -5.840929      0.137698
H      -1.639241     -3.748822     -0.007304
C       1.236763     -6.364412     -0.119410
H       2.537833     -4.676984     -0.466001
C      -0.080777     -6.782542      0.097446
H      -2.139541     -6.165588      0.311615
H       2.043750     -7.091416     -0.143601
H      -0.299595     -7.837526      0.238276
C       0.851872     -2.532752     -2.382990
C       0.596358     -1.187527     -2.484862
H       1.853173     -2.896046     -2.614267
H       0.047316     -3.198371     -2.696907
C       0.214985     -0.050729     -2.085147
H      -0.065743      0.837615     -2.630166
Cl      -0.146559      0.139261      2.209960
Cl      -2.189015      0.207204     -0.309042
