45
S.bp4 optimized geometry
Si  -0.022379   -0.529588    0.684237  
O   1.620909   -0.031191    0.294225  
C   2.674548   -0.808654    0.045140  
C   3.934183   -0.083909   -0.281062  
H   2.801885   -1.650716    0.730699  
C   3.920865    1.212448   -0.817976  
C   5.157042   -0.730750   -0.047244  
C   5.123904    1.856175   -1.106923  
H   2.971196    1.707239   -0.995811  
C   6.358911   -0.082926   -0.336331  
H   5.162445   -1.734786    0.370651  
C   6.344185    1.210841   -0.868784  
H   5.112934    2.863125   -1.515227  
H   7.303551   -0.583547   -0.143230  
H   7.279207    1.716480   -1.094083  
C   2.451450   -1.851356   -1.548302  
C   1.098517   -2.048007   -1.418551  
H   3.115937   -2.689885   -1.340492  
H   2.777292   -1.214241   -2.371194  
C  -0.058641   -1.870055   -0.945264  
H  -1.011385   -2.263330   -1.265083  
Cl  -0.112064    0.978323    2.311428  
Cl   0.490591   -2.207941    2.055212  
O  -0.641011    0.672150   -0.650093  
O  -1.878280   -0.855453    1.062967  
C  -2.870824    1.328462   -0.349942  
C  -3.315291   -0.049372   -0.615192  
C  -3.240586   -2.360522   -0.033132  
C  -1.080557    2.882592   -0.130201  
C  -1.972476    3.919659    0.089006  
C  -3.787495    2.355715   -0.135797  
C  -3.342921    3.657871    0.086636  
C  -4.335320   -0.319253   -1.526412  
C  -4.805133   -1.619473   -1.697688  
C  -4.250860   -2.649045   -0.934602  
H  -4.843471    2.113841   -0.126175  
H  -4.058605    4.453432    0.262133  
H  -4.743467    0.504661   -2.100014  
H  -5.593854   -1.823437   -2.413311  
H  -4.591116   -3.673948   -1.025811  
H  -2.759970   -3.085532    0.610684  
N  -1.539138    1.629309   -0.354393  
N  -2.788220   -1.087613    0.107606  
H  -0.004414    2.984089   -0.151281  
H  -1.582260    4.915760    0.261767  
