79
mapping.R.ts4 optimized geometry
C       0.116804        6.534362        1.163624  
C       0.900988        5.405522        0.963453  
C       0.316609        4.121131        0.925532  
C      -1.093479        3.983835        1.082107  
C      -1.871451        5.141447        1.282316  
C      -1.275574        6.397491        1.329360  
H       2.180510        3.042725        0.638024  
H       0.573949        7.519571        1.195919  
H       1.977877        5.496175        0.838894  
C       1.106468        2.929375        0.773673  
C      -1.685570        2.673815        0.916626  
H      -2.948711        5.041683        1.397927  
H      -1.889100        7.279973        1.493035  
C      -0.862672        1.484152        1.012125  
C       0.562744        1.678607        0.856462  
O      -1.336948        0.315019        1.177515  
H      -2.751304       -0.350288        0.911518  
C      -2.026688        2.763559       -1.187145  
C      -0.866530        2.978934       -1.928668  
H      -2.511440        1.796666       -1.263002  
H      -2.676725        3.620995       -1.047277  
H      -0.406735        3.949028       -2.052636  
N      -0.135225        1.942328       -2.466255  
O       0.958461        2.173455       -3.040910  
O      -0.588072        0.740674       -2.403387  
H      -2.733432        2.560468        1.186883  
H       1.190567        0.794869        0.818800  
C      -0.560570       -2.201540       -0.679885  
N       0.520364       -1.406046       -0.979299  
N      -1.730074       -1.609673       -1.039308  
H      -1.676225       -0.673789       -1.433334  
H       0.289064       -0.573505       -1.539166  
C       1.855449       -1.420586       -0.577992  
C       2.670078       -0.416915       -1.146096  
C       2.420722       -2.295531        0.360968  
C       4.004771       -0.299117       -0.775741  
H       2.242450        0.274758       -1.867616  
C       3.767351       -2.159962        0.710494  
H       1.811116       -3.066921        0.810392  
C       4.576875       -1.169147        0.158884  
H       5.616913       -1.073728        0.441993  
C      -3.046234       -2.225985       -1.062515  
C      -4.096027       -1.277805       -0.444522  
C      -3.441469       -2.601239       -2.503595  
H      -2.993988       -3.137582       -0.462026  
C      -5.497363       -1.900200       -0.503630  
C      -4.840896       -3.223901       -2.559127  
H      -3.412018       -1.694936       -3.123871  
H      -2.682975       -3.291145       -2.887887  
C      -5.871621       -2.266935       -1.949669  
H      -6.236582       -1.201662       -0.102994  
H      -5.522956       -2.807100        0.111989  
H      -5.103103       -3.460540       -3.596427  
H      -4.841681       -4.167556       -1.995969  
H      -6.871002       -2.715559       -1.955297  
H      -5.920440       -1.350786       -2.554275  
C       4.316374       -3.135250        1.726914  
C       4.817142        0.843227       -1.340635  
F       3.635547       -3.065392        2.910153  
F       5.627644       -2.928453        2.014511  
F       4.203962       -4.427379        1.297170  
F       4.497311        1.122987       -2.632451  
F       4.608065        1.996810       -0.630069  
F       6.155895        0.604061       -1.303709  
H      -4.100798       -0.337301       -1.008964  
S      -0.489375       -3.750484        0.011847  
C      -4.605891        0.069101        1.676306  
C      -3.438366       -2.005134        1.938671  
C      -4.002689        0.117054        3.079622  
H      -5.608201       -0.361238        1.685919  
H      -4.613645        1.020991        1.141014  
C      -3.495159       -1.331621        3.328456  
H      -2.476715       -2.458864        1.695799  
H      -4.232751       -2.741498        1.810772  
H      -3.163358        0.815980        3.094502  
H      -4.742924        0.435064        3.817163  
H      -2.509472       -1.322720        3.797697  
H      -4.178987       -1.884059        3.977474  
N      -3.682964       -0.879719        0.957867  
