73
F:55-60;
P      -0.199243        0.998010       -0.868672  
C      -1.815025        0.984600       -1.809122  
O      -1.967975        2.282871       -2.416029  
H      -1.786306        0.250663       -2.621051  
P      -2.609478       -0.489225        0.492351  
C      -3.012628        0.694802       -0.900481  
O      -4.085071        0.117746       -1.669819  
H      -3.385863        1.639930       -0.491308  
C      -3.730543        0.009486        1.840492  
C       1.066797        0.624083       -2.123941  
H      -4.738420        0.188138        1.457550  
H      -3.764131       -0.786987        2.587203  
H      -3.342533        0.914732        2.313480  
H       0.901597        1.219943       -3.025024  
H       2.054169        0.855244       -1.713632  
H       1.036631       -0.441128       -2.365601  
C      -3.470670       -1.790397       -0.401306  
C      -4.182290       -1.232045       -1.471622  
C      -4.983976       -2.017862       -2.295073  
H      -5.527409       -1.566656       -3.118669  
C      -3.549186       -3.161150       -0.153209  
C      -4.346214       -3.958239       -0.970352  
H      -4.413438       -5.025964       -0.788015  
C      -5.056370       -3.382870       -2.029559  
H      -5.673821       -4.010587       -2.665175  
C      -0.288581        2.797097       -0.824472  
C      -1.263102        3.236086       -1.731050  
C      -1.486617        4.592053       -1.950804  
C       0.469993        3.725426       -0.111522  
C       0.252665        5.085249       -0.318737  
H       0.833707        5.818420        0.231394  
C      -0.716698        5.506154       -1.235132  
H      -2.244045        4.915079       -2.657403  
H      -0.882052        6.568332       -1.390534  
Rh      -0.356527       -0.392691        0.998055  
C       4.793159        0.007022       -0.536251  
C       3.787934        0.282801        0.393372  
C       2.757031       -0.639299        0.619084  
C       2.738882       -1.834441       -0.109946  
C       3.748271       -2.099032       -1.037606  
C       4.786358       -1.186700       -1.265070  
O       5.746360        0.966316       -0.675599  
H       3.819913        1.222376        0.937772  
H       1.930096       -2.551097       -0.011629  
O       3.637614       -3.281929       -1.700209  
H       5.559076       -1.399757       -1.991574  
C       1.733594       -0.236467        1.597058  
H       1.841720        0.799737        1.917110  
C       1.558661       -2.466866        2.901991  
H       0.849859       -2.982673        3.552902  
H       1.691613       -3.061629        2.001282  
H       2.528503       -2.411409        3.408993  
N       0.684504       -0.359654        3.776940  
H       1.060892       -0.686839        4.656801  
C       1.092984       -1.070917        2.584016  
C      -0.105843        0.732142        3.759179  
O      -0.653227        1.112599        2.700709  
H      -2.993032       -3.597948        0.672555  
H       1.223644        3.384585        0.594949  
H      -0.406590       -1.572393        2.135505  
H      -0.125489       -1.538108       -0.019560  
C      -0.316861        1.466253        5.040643  
H       0.158599        2.447552        4.968898  
H      -1.385049        1.634541        5.187280  
H       0.091564        0.944478        5.906389  
C       4.631253       -3.594989       -2.666698  
H       4.648078       -2.855767       -3.475712  
H       5.625471       -3.657713       -2.210154  
H       4.357248       -4.568202       -3.071578  
C       6.781774        0.731325       -1.620140  
H       7.357307       -0.165708       -1.365156  
H       6.379244        0.629700       -2.634394  
H       7.432129        1.603343       -1.575005  
