73
F:47-60;
P       1.541010        1.130879        1.067196  
C       3.141058        1.025412        0.107078  
O       3.665470        2.364498        0.015526  
H       3.879660        0.428684        0.651372  
P       1.560965       -0.807278       -1.392286  
C       2.952560        0.442215       -1.298693  
O       4.157288       -0.231304       -1.709850  
H       2.784203        1.258619       -2.008672  
C       1.033095       -0.768867       -3.133826  
C       2.092521        1.156131        2.806891  
H       1.897460       -0.792140       -3.801943  
H       0.402994       -1.638685       -3.330650  
H       0.445837        0.133625       -3.317094  
H       2.910078        1.868923        2.939795  
H       1.262431        1.442322        3.456707  
H       2.430185        0.155733        3.090331  
C       2.787862       -2.121733       -1.295681  
C       4.062989       -1.582912       -1.513396  
C       5.193140       -2.393659       -1.558599  
H       6.172025       -1.957570       -1.727882  
C       2.635516       -3.495259       -1.104224  
C       3.758782       -4.317064       -1.143784  
H       3.654233       -5.386645       -0.992980  
C       5.023088       -3.763479       -1.372038  
H       5.895340       -4.409922       -1.396948  
C       1.418985        2.861615        0.574458  
C       2.656949        3.289144        0.076056  
C       2.857496        4.603699       -0.334215  
C       0.347519        3.752621        0.632287  
C       0.531390        5.068746        0.215030  
H      -0.296252        5.770023        0.251645  
C       1.781207        5.484640       -0.255243  
H       3.823307        4.917112       -0.716664  
H       1.916908        6.511736       -0.581391  
Rh       0.015796       -0.466929        0.296391  
C      -5.519175       -1.168261       -0.544242  
C      -4.336093       -1.543584        0.112881  
C      -3.241449       -0.684829        0.115106  
C      -3.313943        0.546443       -0.554461  
C      -4.493178        0.906272       -1.199849  
C      -5.607547        0.054336       -1.202175  
O      -6.530372       -2.073173       -0.485700  
H      -4.297658       -2.505454        0.615535  
H      -2.445775        1.192618       -0.582051  
O      -4.657109        2.079144       -1.868652  
H      -6.502074        0.369891       -1.726067  
C      -2.050475       -1.121036        0.888071  
H      -2.049484       -2.189135        1.105208  
C      -1.988712        0.995122        2.385528  
H      -1.242063        1.563979        2.945347  
H      -2.344198        1.609192        1.560059  
H      -2.844114        0.828559        3.054514  
N      -0.850173       -1.068021        3.009197  
H      -1.281856       -0.974946        3.920869  
C      -1.435172       -0.319644        1.917058  
C       0.149766       -1.953768        2.852355  
O       0.740444       -2.062333        1.751594  
H      -0.621581        3.419248        0.996570  
H       1.648044       -3.911504       -0.921321  
H      -1.013819       -1.488042       -0.438592  
H      -0.532728        0.651996       -0.624543  
C       0.552383       -2.784069        4.024731  
H       1.629839       -2.694557        4.176517  
H       0.032420       -2.507886        4.942398  
H       0.343612       -3.834242        3.807625  
C      -3.561316        2.983743       -1.874733  
H      -3.290558        3.289418       -0.856237  
H      -2.683265        2.545748       -2.364800  
H      -3.894165        3.853957       -2.438050  
C      -7.744777       -1.735770       -1.142673  
H      -8.182655       -0.823649       -0.721801  
H      -7.588854       -1.600925       -2.218870  
H      -8.419263       -2.574034       -0.975098  
