65
mapping.S.ts6 optimized geometry
C      -5.593888        2.140195       -0.036070  
C      -4.296452        2.126202       -0.540910  
C      -3.570002        0.922782       -0.621966  
C      -4.151664       -0.291781       -0.183836  
C      -5.455387       -0.257727        0.320939  
C      -6.174584        0.940677        0.390783  
H      -1.828512        1.874761       -1.504413  
H      -6.149681        3.071945        0.023330  
H      -3.826875        3.046001       -0.882671  
C      -2.239513        0.917097       -1.194351  
C      -3.311353       -1.556042       -0.140978  
H      -5.924919       -1.170005        0.673660  
H      -7.188405        0.934958        0.782629  
C      -2.067193       -1.524765       -1.054103  
C      -1.531941       -0.217192       -1.411937  
O      -1.529889       -2.571718       -1.434530  
H       1.391108       -0.995360       -0.024879  
C      -2.738763       -1.666358        1.361962  
C      -2.056406       -0.480516        1.932363  
H      -2.074400       -2.537153        1.368982  
H      -3.621970       -1.882214        1.973811  
H      -2.584556        0.279042        2.492046  
N      -0.752779       -0.285250        1.803962  
O      -0.170989        0.744733        2.370804  
O      -0.019787       -1.117635        1.131571  
C      -4.121278       -2.837203       -0.404582  
H      -0.573019       -0.187274       -1.917216  
H      -4.596239       -2.796150       -1.390784  
H      -3.453877       -3.701729       -0.372484  
H      -4.896375       -2.970925        0.355143  
C       1.868454        1.983993        0.001908  
N       0.658211        2.527026        0.271335  
N       2.247141        1.028165        0.899518  
H       1.521433        0.778059        1.585100  
H       0.124504        2.107038        1.036816  
C       0.048844        3.609760       -0.481032  
C       3.414332        0.145413        0.874189  
C       3.457627       -0.735786       -0.390102  
C       4.742921        0.904698        1.073424  
H       3.275105       -0.517119        1.737333  
C       4.690074       -1.639478       -0.446346  
C       5.959285       -0.027182        1.003024  
H       4.820837        1.667446        0.293631  
H       4.691319        1.416309        2.040802  
C       5.969038       -0.797033       -0.324349  
H       4.686653       -2.212997       -1.380269  
H       4.672718       -2.353207        0.385462  
H       6.877493        0.561303        1.112849  
H       5.930584       -0.747044        1.834020  
H       6.841061       -1.457604       -0.385026  
H       6.029467       -0.089383       -1.161851  
H       3.454410       -0.066008       -1.251713  
N       2.148413       -1.533938       -0.503443  
C       2.151435       -2.852142        0.214561  
C       1.748680       -1.723620       -1.934832  
H       1.128121       -3.225544        0.197378  
H       2.827191       -3.535993       -0.298696  
H       2.470049       -2.687539        1.243671  
H       1.696982       -0.740339       -2.405665  
H       2.507659       -2.337144       -2.424534  
H       0.772883       -2.213504       -1.953749  
H       0.676824        4.508327       -0.459668  
H      -0.104876        3.332790       -1.531521  
H      -0.916400        3.829041       -0.016441  
S       2.784283        2.494888       -1.354000  
