65
mapping.S.ts3 optimized geometry
C       1.687409        0.395679        3.295511  
C       2.501249       -0.680208        2.955389  
C       3.137736       -0.730849        1.698790  
C       2.955705        0.319466        0.769901  
C       2.133491        1.390777        1.130114  
C       1.503010        1.434117        2.375325  
H       4.082944       -2.646510        2.101947  
H       1.194738        0.426907        4.263015  
H       2.654353       -1.498788        3.654732  
C       3.973468       -1.863150        1.353270  
C       3.654228        0.311202       -0.586212  
H       1.976241        2.202605        0.428571  
H       0.857801        2.271894        2.623994  
C       4.480998       -0.967970       -0.880932  
C       4.603960       -1.984068        0.158717  
O       5.036796       -1.100009       -1.974496  
H      -1.172410       -1.412247       -0.711670  
C       2.619228        0.495142       -1.733505  
C       1.577969       -0.575695       -1.723259  
H       3.180341        0.506583       -2.678828  
H       2.142245        1.475917       -1.639226  
H       1.763558       -1.557609       -1.306813  
N       0.376179       -0.393890       -2.227580  
O      -0.533886       -1.359437       -2.157709  
O       0.019438        0.719679       -2.800036  
C       4.659528        1.495390       -0.633945  
H       5.217325       -2.850992       -0.071925  
H       4.120987        2.439159       -0.502620  
H       5.404893        1.402445        0.163581  
H       5.167373        1.498211       -1.603350  
C      -1.894910        1.905155       -0.221699  
N      -0.813642        2.567746       -0.699992  
N      -2.288561        0.870732       -1.013425  
H      -1.715806        0.715070       -1.845791  
H      -0.339424        2.158207       -1.507503  
C      -0.249419        3.769627       -0.110201  
C      -3.297094       -0.161145       -0.779065  
C      -2.986672       -1.093451        0.418137  
C      -4.730902        0.397137       -0.694652  
H      -3.236421       -0.789046       -1.675958  
C      -4.035618       -2.206943        0.511780  
C      -5.766641       -0.724981       -0.567975  
H      -4.797518        1.063881        0.169345  
H      -4.907344        0.996748       -1.594630  
C      -5.445909       -1.609999        0.642837  
H      -3.819518       -2.853111        1.367892  
H      -4.002316       -2.825180       -0.394161  
H      -6.769613       -0.292926       -0.472846  
H      -5.761011       -1.343959       -1.476814  
H      -6.171113       -2.426603        0.733065  
H      -5.506415       -1.011599        1.562185  
H      -3.002810       -0.504935        1.338193  
N      -1.537613       -1.624652        0.282956  
C      -1.355954       -3.104547        0.416144  
C      -0.619622       -0.930710        1.241339  
H      -0.300964       -3.311812        0.227904  
H      -1.630274       -3.421427        1.423599  
H      -1.965904       -3.614127       -0.328161  
H      -0.741576        0.144327        1.141011  
H      -0.880293       -1.238336        2.256875  
H       0.406367       -1.215803        1.007853  
H      -0.992734        4.574101       -0.068634  
H       0.109119        3.587107        0.909493  
H       0.587386        4.082246       -0.740981  
S      -2.632308        2.348021        1.256001  
