65
mapping.S.ts5 optimized geometry
C       6.858270        1.151004       -0.859658  
C       5.710758        1.803160       -0.418389  
C       4.587711        1.072148        0.016939  
C       4.615339       -0.346252        0.007245  
C       5.777319       -0.982636       -0.444975  
C       6.889236       -0.248421       -0.869060  
H       3.434542        2.858756        0.471796  
H       7.720484        1.722206       -1.192504  
H       5.666937        2.889860       -0.400426  
C       3.415118        1.770230        0.501822  
C       3.369955       -1.138426        0.363236  
H       5.824103       -2.066171       -0.473031  
H       7.779276       -0.771737       -1.208701  
C       2.313111       -0.328311        1.135086  
C       2.339990        1.125055        1.017427  
O       1.436038       -0.900827        1.790019  
H      -1.884504       -1.457648        0.198447  
C       2.687146       -1.496424       -1.060876  
C       1.356306       -2.135734       -0.972912  
H       2.626213       -0.576436       -1.646099  
H       3.402819       -2.175478       -1.538445  
H       1.217290       -3.176877       -0.717189  
N       0.241832       -1.432864       -1.109292  
O      -0.930791       -2.021593       -0.991424  
O       0.261030       -0.166092       -1.387229  
C       3.671010       -2.455183        1.100367  
H       1.496893        1.666637        1.435276  
H       4.279311       -3.117656        0.478137  
H       4.205683       -2.259497        2.036217  
H       2.732202       -2.963022        1.332027  
C      -2.081124        2.027039       -0.120956  
N      -0.793267        2.463377       -0.149680  
N      -2.279632        0.880684       -0.821647  
H      -1.421987        0.422931       -1.170762  
H      -0.096447        1.837268       -0.536477  
C      -0.300763        3.643124        0.544759  
C      -3.471542        0.039455       -0.908652  
C      -3.853763       -0.656390        0.423292  
C      -4.683814        0.739202       -1.549628  
H      -3.162620       -0.767499       -1.583848  
C      -5.020705       -1.623905        0.194225  
C      -5.850913       -0.236365       -1.741812  
H      -4.996886        1.570366       -0.912625  
H      -4.357077        1.157588       -2.508289  
C      -6.226959       -0.883223       -0.403459  
H      -5.304492       -2.103300        1.135579  
H      -4.711273       -2.410288       -0.505722  
H      -6.710941        0.294923       -2.165955  
H      -5.566914       -1.023716       -2.454910  
H      -7.052734       -1.592461       -0.530327  
H      -6.563860       -0.106897        0.297312  
H      -4.141803        0.099314        1.157636  
N      -2.592683       -1.350301        0.995592  
C      -2.775406       -2.751442        1.496051  
C      -1.955006       -0.532613        2.079016  
H      -1.794866       -3.100878        1.823970  
H      -3.477555       -2.753312        2.331080  
H      -3.136208       -3.381663        0.684972  
H      -1.874584        0.500614        1.751835  
H      -2.590907       -0.588385        2.966268  
H      -0.964986       -0.943760        2.278359  
H      -0.859877        4.533242        0.239224  
H      -0.390677        3.540572        1.634246  
H       0.751494        3.765458        0.274828  
S      -3.279229        2.870514        0.759239  
