82
mapping.R.ts4 optimized geometry
C      -1.598267        0.949781        3.611816  
C      -1.593462        2.319052        3.365031  
C      -0.855791        2.853607        2.289876  
C      -0.112301        1.994382        1.447920  
C      -0.138363        0.622940        1.707869  
C      -0.868904        0.098478        2.775618  
H      -1.441894        4.899520        2.726625  
H      -2.170898        0.545563        4.441625  
H      -2.159362        2.996195        4.000260  
C      -0.853484        4.281797        2.049834  
C       0.758139        2.551613        0.326060  
H       0.428381       -0.050745        1.077525  
H      -0.871011       -0.975693        2.936640  
C       0.607536        4.079358        0.084657  
C      -0.168317        4.864932        1.034463  
O       1.162564        4.602120       -0.885046  
H      -1.604420        1.313496       -0.874332  
C       0.524798        1.816445       -1.017285  
C      -0.930103        1.926111       -1.482085  
H       1.188198        2.268147       -1.759753  
H       0.795512        0.766937       -0.905705  
H      -1.267218        2.961224       -1.534141  
N      -1.063021        1.374675       -2.885624  
O      -0.918291        0.152917       -3.030050  
O      -1.293252        2.147690       -3.804307  
C       2.248999        2.333551        0.725846  
H      -0.199243        5.939098        0.873926  
H       2.470245        2.840605        1.670923  
H       2.440665        1.263767        0.849337  
H       2.896702        2.733063       -0.060662  
C      -0.564787       -2.291790       -0.220075  
N       0.536834       -1.833027       -0.941816  
N      -1.723196       -1.850685       -0.747748  
H      -1.682704       -1.077669       -1.405703  
H       0.308522       -1.454117       -1.853545  
C       1.867689       -1.613417       -0.576591  
C       2.723667       -1.142969       -1.593429  
C       2.376422       -1.741924        0.723830  
C       4.040178       -0.802509       -1.306950  
H       2.341967       -1.027933       -2.602967  
C       3.703360       -1.392051        0.987406  
H       1.737818       -2.098944        1.519323  
C       4.551854       -0.919482       -0.010211  
H       5.576370       -0.646997        0.207238  
C      -3.068954       -2.208400       -0.296857  
C      -4.079231       -1.170831       -0.837855  
C      -3.462328       -3.622267       -0.762674  
H      -3.073186       -2.187771        0.799718  
C      -5.493402       -1.536389       -0.331597  
C      -4.867199       -3.985910       -0.265074  
H      -3.439187       -3.640875       -1.860945  
H      -2.719363       -4.335826       -0.395522  
C      -5.896019       -2.957361       -0.753501  
H      -6.210587       -0.808212       -0.722396  
H      -5.507903       -1.461266        0.763239  
H      -5.134975       -4.992356       -0.608027  
H      -4.865705       -4.005712        0.834241  
H      -6.894007       -3.193697       -0.364675  
H      -5.954409       -3.001374       -1.850573  
C       4.181937       -1.531365        2.415767  
C       4.909786       -0.210573       -2.393080  
F       4.131452       -2.828419        2.837902  
F       3.398101       -0.815315        3.276013  
F       5.457576       -1.104629        2.594339  
F       4.548377       -0.621241       -3.637780  
F       4.831863        1.156121       -2.393367  
F       6.222973       -0.525203       -2.232969  
H      -4.079720       -1.270831       -1.932445  
S      -0.467809       -3.318681        1.119272  
C      -4.358299        1.245030       -1.320600  
C      -3.685772        0.644824        0.834957  
C      -5.474116        1.801176       -0.389979  
H      -4.739098        0.838898       -2.262564  
H      -3.660422        2.057111       -1.562137  
C      -5.042452        1.367280        1.037790  
H      -2.863043        1.346055        1.015105  
H      -3.543746       -0.201539        1.509647  
H      -5.551595        2.889093       -0.483260  
H      -6.447926        1.374276       -0.647058  
H      -4.934377        2.220531        1.715184  
H      -5.780410        0.685169        1.469118  
N      -3.625067        0.206090       -0.573246  
