90
mapping.S.ts1 optimized geometry
C      -2.377327        3.941805       -1.920639  
C      -2.804016        2.931610       -1.064388  
C      -2.052576        2.596440        0.079723  
C      -0.849974        3.284683        0.366729  
C      -0.447661        4.306677       -0.496717  
C      -1.194778        4.632714       -1.631409  
H      -3.452351        1.058968        0.709969  
H      -2.958402        4.193094       -2.803568  
H      -3.726401        2.393832       -1.264253  
C      -2.520219        1.555716        0.969527  
C      -0.010475        2.937214        1.589218  
H       0.475958        4.839596       -0.298838  
H      -0.849446        5.423216       -2.292216  
C      -0.590324        1.794405        2.464538  
C      -1.851524        1.179617        2.086886  
O       0.017299        1.431141        3.478105  
H       2.730188        0.612835        0.182113  
C       1.457223        2.540156        1.190504  
C       1.567207        1.526857        0.062559  
H       1.899555        2.152766        2.108099  
H       2.008075        3.444195        0.921728  
H       0.758054        0.799756        0.047405  
N       1.674873        2.105080       -1.233487  
O       1.249395        1.437481       -2.237451  
O       2.266951        3.182721       -1.415828  
C       0.074698        4.178862        2.520385  
H      -2.227175        0.392387        2.732590  
H      -0.923051        4.473203        2.864573  
H       0.695411        3.936853        3.388792  
H       0.520443        5.017312        1.977076  
C       0.652243       -1.783290       -0.878519  
N      -0.510585       -1.047650       -1.097508  
N       1.708067       -1.197683       -1.482439  
H       1.537108       -0.267182       -1.880973  
H      -0.425232       -0.304844       -1.783506  
C      -1.829425       -1.261728       -0.678997  
C      -2.846559       -0.795488       -1.531318  
C      -2.180160       -1.825310        0.554029  
C      -4.182283       -0.906275       -1.158256  
H      -2.580877       -0.342927       -2.480556  
C      -3.528237       -1.943990        0.901465  
H      -1.410017       -2.146723        1.239933  
C      -4.542509       -1.491852        0.059865  
H      -5.584358       -1.584228        0.340210  
C       3.109476       -1.618189       -1.580999  
C       3.872986       -1.496473       -0.235387  
C       3.240525       -3.023010       -2.216090  
H       3.541648       -0.913394       -2.291184  
C       5.303214       -2.046844       -0.361893  
C       4.690009       -3.510006       -2.290060  
H       2.660401       -3.734993       -1.626183  
H       2.787392       -2.969330       -3.212582  
C       5.310860       -3.485230       -0.890104  
H       5.801178       -1.991132        0.609746  
H       5.878713       -1.437752       -1.062507  
H       4.710658       -4.521224       -2.712918  
H       5.279742       -2.863085       -2.955817  
H       6.342181       -3.855952       -0.911421  
H       4.736213       -4.137431       -0.218141  
C      -3.854884       -2.587361        2.230316  
C      -5.276963       -0.350078       -2.038185  
F      -3.140728       -2.029237        3.252254  
F      -3.547956       -3.917706        2.228960  
F      -5.166988       -2.484112        2.563053  
F      -5.794021        0.805302       -1.509958  
F      -4.853484       -0.049044       -3.291909  
F      -6.321379       -1.214546       -2.162111  
H       3.339611       -2.144654        0.459195  
N       3.837462       -0.096592        0.400746  
C       4.869643        0.915372       -0.095148  
C       3.868377       -0.281537        1.927417  
H       4.509637        1.840575        0.359308  
H       4.606747       -1.068079        2.117083  
S       0.689742       -3.216632        0.020696  
C       4.293590        0.959781        2.726995  
C       2.494730       -0.755523        2.421384  
C       4.830767        1.120775       -1.611292  
C       6.334335        0.702466        0.357881  
H       3.822952        1.256395       -2.002824  
H       5.400508        2.029180       -1.833679  
H       5.311184        0.292641       -2.139773  
H       6.934155        0.245253       -0.432737  
H       6.769479        1.680486        0.588722  
H       6.422569        0.075593        1.246124  
H       5.350920        1.202644        2.622165  
H       3.715421        1.843184        2.454613  
H       4.099971        0.748264        3.783275  
H       2.598621       -1.081799        3.461362  
H       1.771611        0.061134        2.402216  
H       2.088324       -1.589037        1.843731  
