90
mapping.S.ts3 optimized geometry
C       0.779683        4.770944        2.447091  
C       0.961446        5.135490        1.116645  
C       0.460816        4.328462        0.075236  
C      -0.215755        3.124099        0.376152  
C      -0.379263        2.769367        1.719284  
C       0.100741        3.584354        2.746852  
H       1.154317        5.673827       -1.485653  
H       1.161480        5.401733        3.244865  
H       1.482291        6.056025        0.863722  
C       0.609972        4.748149       -1.304904  
C      -0.745185        2.220152       -0.728650  
H      -0.891206        1.847250        1.974206  
H      -0.047870        3.287157        3.781516  
C      -0.654442        2.820554       -2.154833  
C       0.088194        4.060695       -2.350028  
O      -1.170968        2.226680       -3.103976  
H       2.476549        0.227250       -0.485245  
C       0.100531        0.894674       -0.758080  
C       1.522086        1.068986       -1.281691  
H      -0.430778        0.196015       -1.402889  
H       0.093868        0.477726        0.253916  
H       1.927034        2.068626       -1.139446  
N       1.709294        0.740692       -2.650219  
O       2.483108        1.424977       -3.352557  
O       1.170136       -0.310244       -3.125492  
C      -2.224023        1.853948       -0.457589  
H       0.195078        4.414438       -3.371684  
H      -2.312877        1.284618        0.468708  
H      -2.831949        2.761052       -0.370183  
H      -2.603334        1.244628       -1.281048  
C       0.295946       -2.376539       -0.131129  
N      -0.929262       -2.162899       -0.760466  
N       1.325729       -2.056444       -0.940854  
H       1.114962       -1.499071       -1.780164  
H      -0.885916       -2.120682       -1.771188  
C      -2.168230       -1.778637       -0.238346  
C      -3.249033       -1.735752       -1.138644  
C      -2.376711       -1.373507        1.086900  
C      -4.500604       -1.300324       -0.715930  
H      -3.097887       -2.033728       -2.171476  
C      -3.643517       -0.948115        1.491399  
H      -1.558022       -1.386286        1.792023  
C      -4.718097       -0.899795        0.606276  
H      -5.694951       -0.563568        0.929535  
C       2.749302       -2.414742       -0.817703  
C       3.419691       -1.729175        0.400634  
C       2.896889       -3.955160       -0.824960  
H       3.203570       -2.030279       -1.732293  
C       4.804255       -2.315718        0.723599  
C       4.313002       -4.436739       -0.502647  
H       2.213453       -4.371549       -0.079884  
H       2.569787       -4.306573       -1.809942  
C       4.760557       -3.844063        0.836814  
H       5.172954       -1.868745        1.648530  
H       5.521009       -2.071201       -0.061581  
H       4.322825       -5.532540       -0.471841  
H       5.015997       -4.124307       -1.288370  
H       5.755361       -4.210523        1.115085  
H       4.060697       -4.147363        1.627373  
C      -3.793482       -0.465075        2.915874  
C      -5.629621       -1.181499       -1.714615  
F      -3.177158        0.747662        3.093248  
F      -3.219048       -1.318129        3.809599  
F      -5.086818       -0.303850        3.291283  
F      -5.702484        0.084750       -2.227088  
F      -5.488061       -2.023267       -2.772678  
F      -6.842307       -1.443810       -1.154795  
H       2.765461       -1.962742        1.240246  
N       3.403748       -0.204669        0.302867  
C       4.582782        0.505617       -0.354235  
C       2.941110        0.396985        1.638737  
H       4.183773        1.510174       -0.516474  
H       1.895935        0.072914        1.687403  
S       0.411518       -3.014778        1.434419  
C       3.640477       -0.145977        2.894947  
C       2.968360        1.926445        1.652379  
C       4.903182       -0.057072       -1.744069  
C       5.867067        0.665118        0.470227  
H       4.015648       -0.158239       -2.367026  
H       5.570641        0.656302       -2.238155  
H       5.417328       -1.019638       -1.704672  
H       6.395228       -0.276668        0.622219  
H       6.525984        1.332208       -0.097628  
H       5.688015        1.128771        1.440120  
H       3.535533       -1.227706        3.004536  
H       4.701706        0.109105        2.925248  
H       3.155751        0.320196        3.759690  
H       2.478940        2.253840        2.572115  
H       3.988292        2.318306        1.656783  
H       2.420385        2.370533        0.823129  
