80
mapping.S.ts3 optimized geometry
C      -6.616762       -0.503249        0.036973  
C      -5.643078        0.473835       -0.127820  
C      -4.309260        0.116884       -0.419533  
C      -3.959939       -1.258752       -0.540548  
C      -4.959939       -2.234273       -0.366528  
C      -6.271866       -1.863369       -0.088014  
H      -3.554079        2.151894       -0.507823  
H      -7.642122       -0.221078        0.260512  
H      -5.896756        1.527581       -0.034179  
C      -3.283466        1.104566       -0.633133  
C      -2.563781       -1.601536       -0.710919  
H      -4.694061       -3.286053       -0.450288  
H      -7.034882       -2.627778        0.036195  
C      -1.623510       -0.609852       -1.208982  
C      -2.022344        0.774411       -1.038961  
O      -0.502313       -0.916746       -1.715838  
H       0.790513       -1.885172       -1.252336  
C      -1.958823       -1.667145        1.290787  
C      -2.491950       -0.644317        2.081447  
H      -0.887082       -1.676878        1.123217  
H      -2.424818       -2.641082        1.408310  
H      -3.506262       -0.661746        2.453952  
N      -1.817303        0.519394        2.379722  
O      -2.387887        1.408472        3.065511  
O      -0.605209        0.683998        1.997889  
H      -2.338977       -2.636652       -0.958904  
H      -1.284028        1.534897       -1.265262  
C       2.037372        0.729820       -0.184948  
N       1.216086        1.803512       -0.081841  
N       1.569119       -0.365727        0.493894  
H       0.728400       -0.207156        1.050371  
H       0.413764        1.663719        0.526831  
C       1.440876        3.242795       -0.405551  
C       2.274711       -1.598184        0.850884  
C       2.640293       -2.477051       -0.360382  
C       3.513725       -1.339114        1.734666  
H       1.552830       -2.156731        1.460176  
C       3.343289       -3.770702        0.062236  
C       4.218447       -2.640122        2.134379  
H       4.204265       -0.701090        1.175216  
H       3.180788       -0.782754        2.617666  
C       4.600305       -3.447147        0.886546  
H       3.603871       -4.358182       -0.824987  
H       2.673348       -4.379127        0.682229  
H       5.109765       -2.408269        2.728727  
H       3.553614       -3.247541        2.765576  
H       5.098402       -4.382582        1.164503  
H       5.302768       -2.866674        0.273691  
H       3.295703       -1.889610       -1.004512  
N       1.400430       -2.747005       -1.211888  
C       0.497334       -3.810954       -0.674215  
C       1.762811       -3.032481       -2.635898  
H      -0.425439       -3.771079       -1.253126  
H       0.976169       -4.784004       -0.781095  
H       0.288533       -3.603001        0.375397  
H       2.344389       -2.188794       -3.010089  
H       2.343972       -3.955099       -2.679084  
H       0.836460       -3.134631       -3.203471  
S       3.473958        0.704635       -1.111832  
C       0.144526        3.935799        0.094457  
C       1.641557        3.478623       -1.920590  
C       2.681716        3.779101        0.348987  
H      -0.705396        3.506701       -0.447224  
H      -0.000331        3.673674        1.149300  
H       1.730378        4.561889       -2.062828  
H       2.600368        3.038490       -2.204480  
H       2.801440        4.834109        0.075990  
H       3.555985        3.248477       -0.038718  
C       0.121597        5.459432       -0.050375  
C       2.624556        3.633650        1.873157  
C       0.538248        2.919209       -2.822681  
H      -0.829090        5.851924        0.327957  
H       0.930159        5.927322        0.521760  
H       0.220564        5.768627       -1.096892  
H       0.778949        3.108090       -3.875694  
H       0.437380        1.837833       -2.683163  
H      -0.433786        3.382653       -2.614986  
H       1.818606        4.235308        2.308984  
H       2.457509        2.588256        2.158029  
H       3.569961        3.960892        2.321521  
