83
mapping.S.ts4 optimized geometry
C      -3.918104        0.044967       -3.048660  
C      -2.983522       -0.967921       -2.854219  
C      -2.716220       -1.461407       -1.561668  
C      -3.382121       -0.914295       -0.441389  
C      -4.317258        0.103658       -0.657571  
C      -4.591100        0.578541       -1.943291  
H      -1.287392       -2.935361       -2.273498  
H      -4.122476        0.417596       -4.048171  
H      -2.452543       -1.397803       -3.699937  
C      -1.784024       -2.555986       -1.383567  
C      -3.134192       -1.444714        0.966430  
H      -4.849008        0.529855        0.187596  
H      -5.324231        1.368727       -2.079641  
C      -2.153809       -2.646039        1.044585  
C      -1.522863       -3.120794       -0.179903  
O      -1.911286       -3.167238        2.135799  
H      -1.048524        1.276127        0.705242  
C      -2.569371       -0.328263        1.895852  
C      -1.133156        0.085259        1.570987  
H      -3.260182        0.520407        1.872149  
H      -2.599332       -0.726495        2.916349  
H      -0.553612       -0.635283        0.996369  
N      -0.388868        0.490728        2.697649  
O       0.885965        0.403005        2.662724  
O      -0.962346        1.001113        3.681899  
C      -4.483512       -1.926906        1.567195  
H      -0.827424       -3.949582       -0.085269  
H      -5.171207       -1.082512        1.670456  
H      -4.945991       -2.678678        0.918400  
H      -4.300184       -2.363169        2.553069  
C       2.126856        0.238080       -0.718103  
N       2.084759       -0.996079       -0.132106  
N       1.556370        1.205461        0.046478  
H       1.366833        0.973493        1.027757  
H       1.673572       -0.979316        0.796028  
C       3.026387       -2.148742       -0.281598  
C       1.407426        2.604052       -0.307871  
C       0.123271        3.188257        0.315939  
C       2.632313        3.426136        0.138234  
H       1.337097        2.668901       -1.397481  
C      -0.030708        4.656642       -0.117929  
C       2.490934        4.895949       -0.271084  
H       2.731451        3.345740        1.229473  
H       3.518054        2.970545       -0.315696  
C       1.196252        5.484614        0.301228  
H      -0.925355        5.093058        0.333344  
H      -0.149541        4.699500       -1.208360  
H       3.358612        5.469593        0.075092  
H       2.469198        4.964066       -1.367852  
H       1.060285        6.521168       -0.028047  
H       1.257714        5.495588        1.398401  
H       0.210206        3.149105        1.408810  
N      -1.094704        2.340273        0.006237  
C      -1.223450        1.950511       -1.420405  
C      -2.352400        2.960332        0.500853  
H      -2.132067        1.359248       -1.527513  
H      -1.290343        2.841836       -2.052716  
H      -0.362825        1.347161       -1.711187  
H      -2.217007        3.247885        1.546253  
H      -2.621598        3.833945       -0.098619  
H      -3.141595        2.212802        0.422534  
S       2.745292        0.557877       -2.274975  
C       2.530559       -3.156863        0.787587  
C       4.477301       -1.686958       -0.003815  
C       2.975183       -2.775529       -1.692441  
H       2.543292       -2.656391        1.764310  
H       1.481401       -3.390033        0.573519  
H       5.136069       -2.552140       -0.145310  
H       4.736560       -0.959085       -0.780542  
H       3.616557       -3.663991       -1.666832  
H       3.430720       -2.071621       -2.392279  
C       3.337884       -4.453571        0.888528  
C       1.578693       -3.148954       -2.189301  
C       4.711063       -1.072231        1.380666  
H       2.939252       -5.076108        1.697425  
H       3.286384       -5.033839       -0.038950  
H       4.392336       -4.250626        1.106496  
H       4.544668       -1.802594        2.180802  
H       5.741679       -0.708762        1.465370  
H       4.039640       -0.222839        1.551619  
H       1.098616       -3.889753       -1.540065  
H       0.941514       -2.259638       -2.222465  
H       1.634605       -3.571442       -3.199638  
