62
mapping.R.ts1 optimized geometry
C      -6.778663       -0.876867       -0.720310  
C      -5.783226       -1.732814       -0.269489  
C      -4.433645       -1.316033       -0.237142  
C      -4.092396        0.002238       -0.668213  
C      -5.121979        0.855829       -1.121014  
C      -6.441875        0.423119       -1.151343  
H      -3.645766       -3.182736        0.543122  
H      -7.814147       -1.205629       -0.743302  
H      -6.029498       -2.739186        0.062856  
C      -3.377665       -2.185677        0.197574  
C      -2.725431        0.446642       -0.554416  
H      -4.867139        1.861117       -1.449876  
H      -7.221148        1.091459       -1.509210  
C      -1.654213       -0.499867       -0.314314  
C      -2.064074       -1.808049        0.167758  
O      -0.441694       -0.154496       -0.460933  
H       0.939533       -1.023585       -0.234301  
C      -2.753184        1.269816        1.412926  
C      -1.532823        1.843915        1.749606  
H      -3.047321        0.345925        1.899335  
H      -3.552344        1.951528        1.141126  
H      -1.258676        2.849710        1.464893  
N      -0.533027        1.141273        2.392656  
O       0.582655        1.754402        2.604445  
O      -0.702750       -0.036688        2.789884  
H      -2.448487        1.368346       -1.058904  
H      -1.297756       -2.505819        0.485118  
C       1.989109        1.841252       -0.564265  
N       1.148374        2.826942       -0.169146  
N       2.368093        1.011717        0.448521  
H       1.891088        1.155903        1.339455  
H       0.830138        2.790134        0.795707  
C       0.394938        3.676965       -1.078362  
C       3.409465       -0.011148        0.457185  
C       3.072654       -1.227216       -0.428203  
C       4.812534        0.542336        0.129506  
H       3.445245       -0.358397        1.495400  
C       4.158637       -2.305477       -0.328185  
C       5.883421       -0.550336        0.227239  
H       4.798631        0.958712       -0.881515  
H       5.016460        1.360403        0.829065  
C       5.532732       -1.721976       -0.696568  
H       3.921869       -3.143723       -0.989598  
H       4.211006       -2.690080        0.697906  
H       6.861862       -0.132749       -0.037038  
H       5.951857       -0.915282        1.262446  
H       6.287523       -2.513211       -0.626118  
H       5.514397       -1.375256       -1.738589  
H       2.979119       -0.881898       -1.460233  
N       1.683828       -1.779042       -0.093576  
C       1.524868       -2.223060        1.328280  
C       1.291118       -2.867804       -1.044829  
H       0.542188       -2.680781        1.432401  
H       2.299433       -2.948907        1.574438  
H       1.572593       -1.351626        1.979796  
H       1.503336       -2.529782       -2.060654  
H       1.849579       -3.776140       -0.817095  
H       0.221398       -3.042403       -0.928046  
H       1.069127        4.276619       -1.698262  
H      -0.247571        3.082830       -1.741254  
H      -0.223372        4.343303       -0.470201  
S       2.494279        1.699656       -2.189734  
