82
mapping.S.ts5 optimized geometry
C      -4.642853        3.257129        1.453727  
C      -3.918946        2.097608        1.706435  
C      -2.542136        2.029946        1.414358  
C      -1.875892        3.151563        0.859076  
C      -2.623474        4.308430        0.610840  
C      -3.989001        4.366221        0.903166  
H      -2.360270       -0.021320        2.105380  
H      -5.705329        3.300208        1.675749  
H      -4.408299        1.221666        2.124767  
C      -1.807168        0.818425        1.689113  
C      -0.410277        3.076489        0.467642  
H      -2.141394        5.178771        0.176935  
H      -4.542987        5.278310        0.697282  
C       0.293866        1.794650        0.919982  
C      -0.474247        0.697754        1.458274  
O       1.528993        1.710651        0.783383  
H       2.935796        0.570331        0.703222  
C      -0.384418        3.103741       -1.153289  
C       0.935477        2.842905       -1.767753  
H      -1.116701        2.385480       -1.523084  
H      -0.743647        4.110926       -1.397911  
H       1.792888        3.477093       -1.590723  
N       1.199093        1.724342       -2.436082  
O       2.405354        1.428414       -2.814236  
O       0.249707        0.870929       -2.739847  
C       0.387366        4.295836        0.982345  
H       0.061087       -0.220966        1.682358  
H      -0.027880        5.221745        0.574484  
H       0.350100        4.344828        2.076151  
H       1.430391        4.209576        0.668419  
C       1.376919       -1.620106       -0.495872  
N       0.177323       -1.242910       -1.046363  
N       2.431858       -1.031247       -1.126244  
H       2.244948       -0.365349       -1.881542  
H       0.238765       -0.456627       -1.738510  
C      -1.142590       -1.564223       -0.722308  
C      -2.125806       -0.664870       -1.187858  
C      -1.557593       -2.703245       -0.016248  
C      -3.470414       -0.883620       -0.919673  
H      -1.812470        0.208658       -1.747338  
C      -2.917375       -2.898968        0.247955  
H      -0.827926       -3.421521        0.326765  
C      -3.888580       -1.999292       -0.185968  
H      -4.937311       -2.159374        0.031063  
C       3.867315       -1.284124       -0.952032  
C       4.409754       -0.882693        0.434802  
C       4.279867       -2.727629       -1.302938  
H       4.338123       -0.621375       -1.686406  
C       5.927719       -1.063335        0.515190  
C       5.799625       -2.913064       -1.193739  
H       3.773364       -3.417228       -0.621691  
H       3.930805       -2.938805       -2.319332  
C       6.295295       -2.523741        0.205517  
H       6.286395       -0.782154        1.510941  
H       6.431755       -0.418238       -0.213818  
H       6.058557       -3.954627       -1.415558  
H       6.304101       -2.283634       -1.940685  
H       7.381474       -2.645772        0.279594  
H       5.836514       -3.182656        0.954912  
C      -3.312697       -4.094332        1.083502  
C      -4.512289        0.065414       -1.463066  
F      -3.099965       -3.859926        2.417159  
F      -2.593187       -5.207981        0.770898  
F      -4.626389       -4.421797        0.953318  
F      -4.009866        1.289368       -1.770817  
F      -5.080442       -0.423581       -2.609631  
F      -5.536228        0.262360       -0.584022  
H       3.925891       -1.504546        1.189800  
S       1.544867       -2.641435        0.856469  
C       4.302312        0.973381        2.195407  
C       4.465460        1.625317       -0.176498  
C       5.184095        2.210543        2.032447  
H       4.769448        0.145797        2.728225  
H       3.347611        1.219005        2.663716  
C       4.659614        2.837396        0.729895  
H       3.725964        1.745461       -0.970270  
H       5.415325        1.299937       -0.600886  
H       5.098473        2.875278        2.895727  
H       6.233655        1.917728        1.917224  
H       3.697842        3.328869        0.904408  
H       5.355784        3.555436        0.288875  
N       3.970298        0.529679        0.766849  
