93
F:55-60;
P      -0.947448       -0.957111       -1.118556  
C       0.157474       -2.269496       -1.844341  
O      -0.688858       -3.185097       -2.557945  
H       0.859475       -1.841306       -2.567813  
P       1.578502       -1.870727        0.554733  
C       0.920380       -3.024004       -0.753521  
O       2.043082       -3.714007       -1.325256  
H       0.268390       -3.782155       -0.307080  
C       1.676100       -2.938072        2.031461  
C      -1.305662        0.086140       -2.573570  
H       2.263490       -3.837298        1.829380  
H       2.118279       -2.392360        2.866879  
H       0.657627       -3.217525        2.313260  
H      -1.574452       -0.532947       -3.432860  
H      -2.122033        0.780817       -2.360924  
H      -0.415798        0.679454       -2.802853  
C       3.183680       -1.910589       -0.284437  
C       3.175878       -2.952796       -1.226094  
C       4.262692       -3.208425       -2.054370  
H       4.226968       -4.028541       -2.763455  
C       4.291638       -1.047140       -0.210330  
C       5.370780       -1.284982       -1.073354  
H       6.236878       -0.630972       -1.023827  
C       5.360854       -2.358932       -1.962500  
H       6.218945       -2.528091       -2.606336  
C      -2.277523       -2.201371       -1.092754  
C      -1.912119       -3.258471       -1.946632  
C      -2.737988       -4.353042       -2.171341  
C      -3.494380       -2.269565       -0.390133  
C      -4.313915       -3.389428       -0.602018  
H      -5.262459       -3.450703       -0.076388  
C      -3.949453       -4.399830       -1.488438  
H      -2.422069       -5.145939       -2.840874  
H      -4.613734       -5.245660       -1.638990  
Rh       0.249136        0.009106        0.678257  
C      -1.997436        3.935477       -2.138624  
C      -1.987682        3.172941       -0.965656  
C      -0.771703        2.748536       -0.410117  
C       0.433228        3.103830       -1.034035  
C       0.407619        3.878096       -2.196811  
C      -0.801641        4.296374       -2.756675  
O      -3.135556        4.358885       -2.751944  
H      -2.912716        2.894037       -0.474943  
H       1.373753        2.736660       -0.643537  
O       1.528595        4.260377       -2.867260  
H      -0.809357        4.883643       -3.668183  
C      -0.859381        1.904674        0.790754  
H      -1.875867        1.612667        1.045580  
C       1.036187        2.997582        2.177358  
H       1.682383        2.741547        3.019041  
H       1.671953        3.201115        1.318188  
H       0.491375        3.918476        2.415286  
N      -0.552736        1.425706        3.144507  
H      -0.567417        2.077839        3.918278  
C       0.037168        1.900772        1.911758  
C      -1.120192        0.210282        3.309309  
O      -1.041662       -0.664716        2.422898  
C       4.340068        0.089176        0.730422  
C      -3.935635       -1.235381        0.566521  
H       1.250965        0.747733        1.735409  
H       1.174286        0.564500       -0.437145  
C      -1.796417       -0.056983        4.614960  
H      -2.474541        0.753735        4.890656  
H      -2.352629       -0.990393        4.548017  
H      -1.049599       -0.151505        5.408821  
C       2.776366        3.820673       -2.350267  
H       2.942562        4.195047       -1.332603  
H       2.840559        2.725555       -2.345458  
H       3.536920        4.226713       -3.015603  
C      -4.373607        3.946601       -2.189288  
H      -4.457005        2.852413       -2.165367  
H      -4.503817        4.342282       -1.175205  
H      -5.147500        4.353881       -2.838059  
C      -3.882056        0.130714        0.264378  
C      -4.459318       -1.624886        1.809822  
C      -4.842051        0.679911        2.415311  
C      -4.897330       -0.678016        2.728689  
C      -4.344813        1.078328        1.176713  
H      -3.515663        0.456141       -0.709009  
H      -4.329372        2.135203        0.920023  
H      -5.194377        1.421565        3.126570  
H      -5.279835       -1.000315        3.693375  
H      -4.493725       -2.681679        2.063069  
C       4.712734        1.363948        0.279712  
C       4.039149       -0.079697        2.088365  
C       4.478578        2.255768        2.512555  
C       4.112263        0.992422        2.973910  
C       4.772053        2.439692        1.161487  
H       4.942612        1.509647       -0.773685  
H       5.051078        3.423606        0.793215  
H       4.529209        3.094879        3.201077  
H       3.888917        0.838302        4.026402  
H       3.787225       -1.070740        2.458865  
