65
F:47-60;
P        0.7104510        1.3365740        0.8692310
C        2.4667920        1.1097770        0.2716680
O        3.0443620        2.4226120        0.1441890
H        3.0553190        0.5700660        1.0201640
P        1.2156080       -0.9227920       -1.2584140
C        2.5506430        0.3728630       -1.0678150
O        3.8190940       -0.3018540       -1.1696810
H        2.5071760        1.0987830       -1.8857470
C        1.0014850       -1.1065770       -3.0562490
C        0.9020760        1.5567530        2.6715410
H        1.9689060       -1.1896840       -3.5573330
H        0.4148680       -2.0069930       -3.2512660
H        0.4543450       -0.2446430       -3.4449010
H        1.6887700        2.2842560        2.8857140
H       -0.0372690        1.9106650        3.1025240
H        1.1586450        0.5976520        3.1279160
C        2.4197920       -2.1758710       -0.7827950
C        3.7067270       -1.6231610       -0.8307420
C        4.8359460       -2.3939940       -0.5724400
H        5.8241110       -1.9479620       -0.6155140
C        2.2530060       -3.5227130       -0.4591830
C        3.3746540       -4.3037950       -0.1938570
H        3.2573310       -5.3515160        0.0635110
C        4.6522280       -3.7375650       -0.2553440
H        5.5221940       -4.3519260       -0.0433440
C        0.7482460        3.0121760        0.1987780
C        2.0771170        3.3659300       -0.0747880
C        2.4102970        4.6379590       -0.5289460
C       -0.2716930        3.9424000       -0.0042440
C        0.0479170        5.2177260       -0.4634740
H       -0.7382310        5.9474660       -0.6269110
C        1.3806580        5.5568260       -0.7164070
H        3.4449260        4.8909040       -0.7350740
H        1.6223900        6.5528950       -1.0755220
Rh       -0.6227130       -0.4345020        0.0591430
C       -6.1586620       -0.8176210       -1.0394820
C       -5.0908910       -1.0011990       -0.1665890
C       -3.7673210       -0.8964630       -0.6208480
C       -3.5417240       -0.6110760       -1.9692620
C       -4.6121560       -0.4255920       -2.8438950
C       -5.9224380       -0.5261510       -2.3830450
H       -7.1762350       -0.9010290       -0.6684610
H       -5.2806730       -1.2263030        0.8810200
H       -2.5202560       -0.5380330       -2.3343880
H       -4.4167710       -0.2027260       -3.8889570
H       -6.7546260       -0.3804880       -3.0656460
C       -2.6978990       -1.1195300        0.3969400
H       -2.6754680       -2.1300510        0.8077140
C       -3.0189140        1.2463330        1.3542800
H       -2.4041650        1.9962460        1.8584390
H       -3.2291760        1.5886810        0.3397680
H       -3.9777320        1.1937160        1.8878530
N       -1.9435040       -0.5446160        2.6503920
H       -2.5351010       -0.2991900        3.4350950
C       -2.3486350       -0.0939730        1.3392800
C       -0.9243400       -1.4004740        2.8509290
O       -0.1446990       -1.6980170        1.9147110
H       -1.3054780        3.6731680        0.1949440
H        1.2554700       -3.9527080       -0.4165350
H       -1.4139220       -1.6408110       -0.6804750
H       -1.0587030        0.4926010       -1.1007150
C       -0.7409560       -1.9706310        4.2170190
H        0.3163980       -1.9455130        4.4842390
H       -1.3230190       -1.4462600        4.9756220
H       -1.0500810       -3.0191450        4.2098550
