65
mapping.S.ts3 optimized geometry
C      -1.251418        3.580608        0.712057  
C      -2.367487        3.408664       -0.101033  
C      -2.969613        2.142071       -0.234161  
C      -2.443455        1.029558        0.465487  
C      -1.309823        1.217373        1.258587  
C      -0.717363        2.477018        1.385252  
H      -4.485762        2.864398       -1.611601  
H      -0.791545        4.559801        0.811596  
H      -2.789421        4.249750       -0.646198  
C      -4.120340        1.976974       -1.096955  
C      -3.161848       -0.315554        0.431440  
H      -0.866724        0.380206        1.785461  
H       0.172010        2.576126        2.000083  
C      -4.257282       -0.436485       -0.664673  
C      -4.731954        0.783589       -1.303054  
O      -4.741089       -1.538346       -0.936180  
H      -0.487380       -0.760053       -0.824028  
C      -2.198742       -1.520175        0.328440  
C      -1.336922       -1.449486       -0.935625  
H      -2.811544       -2.425062        0.308857  
H      -1.558438       -1.556766        1.210093  
H      -1.923030       -1.201317       -1.820495  
N      -0.714196       -2.798742       -1.227709  
O      -0.943573       -3.330262       -2.306879  
O       0.002494       -3.299293       -0.351442  
C      -3.942332       -0.448656        1.777761  
H      -5.573489        0.687931       -1.983739  
H      -3.231664       -0.420020        2.609864  
H      -4.653338        0.376214        1.893134  
H      -4.485609       -1.399519        1.790478  
C       1.761215       -0.811849        1.815908  
N       0.767724       -1.598642        2.320238  
N       2.285739       -1.266670        0.647860  
H       1.809176       -2.058719        0.239272  
H       0.525492       -2.440085        1.815261  
C       0.180038       -1.447984        3.645246  
C       3.232384       -0.616307       -0.274536  
C       2.656588        0.656095       -0.943771  
C       4.616240       -0.376813        0.360409  
H       3.381724       -1.364059       -1.061528  
C       3.696834        1.257645       -1.915895  
C       5.602693        0.213647       -0.655051  
H       4.510332        0.311381        1.202290  
H       4.982511       -1.332449        0.754224  
C       5.046331        1.520258       -1.236145  
H       3.292355        2.181490       -2.345064  
H       3.857669        0.556954       -2.746046  
H       6.570588        0.385389       -0.168497  
H       5.770697       -0.501199       -1.474396  
H       5.750351        1.954530       -1.957063  
H       4.914730        2.250229       -0.424815  
H       2.468625        1.376899       -0.140250  
N       1.338997        0.386934       -1.566713  
C       1.388304       -0.458780       -2.761328  
C       0.608977        1.620297       -1.861920  
H       0.362712       -0.700153       -3.062059  
H       1.881614        0.030908       -3.620073  
H       1.911453       -1.396772       -2.552068  
H       0.565901        2.244190       -0.965794  
H       1.064734        2.203509       -2.684135  
H      -0.417336        1.369102       -2.155834  
H       0.941293       -1.527537        4.430637  
H      -0.314525       -0.475940        3.748843  
H      -0.558120       -2.245229        3.767505  
S       2.252331        0.594917        2.639857  
