65
F:55-60;
P       -1.8250280        0.2708060        1.1924670
C       -1.7584650        2.0561100        0.6345790
O       -3.1211040        2.4931750        0.4553540
H       -1.3215870        2.6864330        1.4150050
P        0.3845020        0.9947890       -0.9193410
C       -0.9799080        2.2543970       -0.6700360
O       -0.3749980        3.5624290       -0.6838730
H       -1.6807220        2.2177860       -1.5103910
C        0.5078280        0.7718000       -2.7247050
C       -2.0998150        0.3788480        2.9898700
H        0.5068990        1.7356770       -3.2395500
H        1.4409170        0.2483440       -2.9487610
H       -0.3276340        0.1603190       -3.0731700
H       -2.8779800        1.1110600        3.2188700
H       -2.4077580       -0.6007930        3.3612500
H       -1.1675370        0.6613620        3.4835270
C        1.5952240        2.2563140       -0.4976510
C        0.9698250        3.5082540       -0.4391250
C        1.6949890        4.6650940       -0.1664610
H        1.1952020        5.6273070       -0.1256070
C        2.9684910        2.1506790       -0.2735370
C        3.7031060        3.2993730        0.0074390
H        4.7714930        3.2271410        0.1875360
C        3.0644720        4.5428320        0.0568810
H        3.6425320        5.4350950        0.2785820
C       -3.4735470        0.1496280        0.4742330
C       -3.9514230        1.4368270        0.1928470
C       -5.2351270        1.6383050       -0.3060350
C       -4.2842230       -0.9611160        0.2406130
C       -5.5684410       -0.7735100       -0.2642620
H       -6.2073110       -1.6297100       -0.4551100
C       -6.0331500        0.5187700       -0.5296140
H       -5.5894140        2.6420510       -0.5165020
H       -7.0346140        0.6576140       -0.9262520
Rh       -0.0243530       -0.9125910        0.3673060
C        4.7211450       -0.6102000        1.4843630
C        3.4398100       -1.1085680        1.2732260
C        3.0321920       -1.5403500       -0.0011290
C        3.9569400       -1.4331260       -1.0545500
C        5.2369820       -0.9268080       -0.8452500
C        5.6279990       -0.5149370        0.4277440
H        5.0063930       -0.2759160        2.4781090
H        2.7352190       -1.1203940        2.1005420
H        3.6583640       -1.7483860       -2.0525050
H        5.9276220       -0.8515020       -1.6804980
H        6.6235540       -0.1139480        0.5940180
C        1.6956270       -2.0639570       -0.3269750
H        1.5312590       -2.1823580       -1.3981300
C        1.4591210       -3.7007510        1.6657500
H        2.1672420       -4.4597450        1.3147670
H        1.9948970       -3.0363310        2.3393120
H        0.6668260       -4.1946900        2.2311150
N        0.0029430       -3.8003730       -0.2875040
H        0.1008050       -4.8004310       -0.1756280
C        0.9049070       -2.9660510        0.4739480
C       -0.9065970       -3.3216150       -1.1600080
O       -1.1221140       -2.0939330       -1.2567730
H        3.4575020        1.1806570       -0.3220390
H       -3.9115580       -1.9600830        0.4529950
H       -0.2387330       -2.1863870        1.3746960
H        0.7639590       -0.2490840        1.5207260
C       -1.6583620       -4.3038400       -1.9938380
H       -1.4421280       -5.3401200       -1.7338770
H       -2.7290230       -4.1181630       -1.8894810
H       -1.4033400       -4.1452780       -3.0442130
