75
ts2
C       -1.6607760        6.7723140       -1.2828140
C       -0.6051180        5.8702200       -1.2830950
C       -0.8276610        4.4973790       -1.0377480
C       -2.1554700        4.0353390       -0.7806980
C       -3.2133470        4.9710670       -0.7857450
C       -2.9718990        6.3161340       -1.0361530
H        1.2467790        3.8943350       -1.2708770
H       -1.4792260        7.8264700       -1.4739730
H        0.4100810        6.2097730       -1.4772290
C        0.2389550        3.5357710       -1.0703600
C       -2.3666890        2.6486120       -0.4555430
H       -4.2256010        4.6232330       -0.5899270
H       -3.7987700        7.0219500       -1.0407080
C       -1.3137990        1.6754180       -0.6341490
C        0.0164230        2.2007130       -0.8862420
O       -1.4995870        0.4226390       -0.5290040
H       -2.6566490       -0.6614790       -0.5758250
C       -2.2443880        2.7527220        1.7471190
C       -2.6266960        1.5449650        2.3047970
H       -1.2005010        3.0435760        1.7604790
H       -2.9784630        3.5502110        1.7355360
H       -3.6580080        1.2590980        2.4565770
N       -1.7248960        0.5500520        2.6193990
O       -2.1814690       -0.5747530        3.0209110
O       -0.4752500        0.7430910        2.5344510
H       -3.3889860        2.2809630       -0.4444470
H        0.8273250        1.4840270       -0.9629650
C       -0.1761630       -2.2218250        0.2674240
N        0.6883940       -1.3627410        0.9181450
N       -1.3565360       -2.3307950        0.9237350
H       -1.4720020       -1.7855690        1.7825010
H        0.2474160       -0.6945950        1.5630790
C        1.9947250       -1.0009260        0.5760190
C        2.3808070        0.3273280        0.8214700
C        2.9444300       -1.9063560        0.0774570
C        3.6794960        0.7460420        0.5377750
H        1.6552670        1.0234580        1.2251550
C        4.2381790       -1.4651900       -0.2058280
H        2.6753340       -2.9422000       -0.0705030
C        4.6197230       -0.1377720        0.0038860
H        5.6249890        0.1942610       -0.2243730
C       -2.5318420       -3.1407700        0.5983390
C       -3.2399390       -2.7289190       -0.7101150
C       -2.2406260       -4.6563140        0.6164060
H       -3.2263480       -2.9444690        1.4221020
C       -4.5046480       -3.5670810       -0.9352160
C       -3.5156690       -5.4737670        0.3841070
H       -1.5059740       -4.8843240       -0.1601510
H       -1.7903340       -4.8938260        1.5862880
C       -4.1723000       -5.0675310       -0.9407810
H       -4.9765980       -3.2856770       -1.8810650
H       -5.2234700       -3.3740280       -0.1296020
H       -3.2722730       -6.5423090        0.3812000
H       -4.2247310       -5.3003080        1.2063670
H       -5.0923920       -5.6373250       -1.1117420
H       -3.4884340       -5.2868580       -1.7717970
C        4.0449970        2.1992010        0.7246460
C        5.2283870       -2.4387510       -0.8022470
F        5.0277120       -3.7167010       -0.3779900
F        5.1404140       -2.4649310       -2.1683090
F        6.5186080       -2.1203660       -0.5046310
F        3.8226960        2.9186310       -0.4216230
F        5.3589100        2.3707000        1.0367120
F        3.3198950        2.8027740        1.7043180
H       -2.5412410       -2.8721740       -1.5368470
N       -3.5466140       -1.2314800       -0.7308140
C       -4.4862960       -0.7662790        0.3364570
C       -4.0188680       -0.7829190       -2.0800030
H       -5.4521240       -1.2575590        0.2191310
H       -4.0488640       -0.9785630        1.3123480
H       -4.6007310        0.3121110        0.2186260
H       -3.3272850       -1.1674080       -2.8314870
H       -5.0287600       -1.1526650       -2.2585650
H       -4.0067140        0.3083300       -2.0849150
S        0.1892270       -3.0010890       -1.1954850
