23
ts1
 C                 -2.83745600    6.28065400    0.39786200
 C                 -3.53402800    5.44037100   -0.45427100
 C                 -3.19620800    4.07271700   -0.56411400
 C                 -2.11545100    3.55384600    0.20927300
 C                 -1.42759100    4.43517000    1.06897200
 C                 -1.77098300    5.78211700    1.17886500
 H                 -4.75558600    3.61372000   -2.00099600
 H                 -3.10986500    7.33099800    0.47249800
 H                 -4.35842500    5.82408600   -1.05185500
 C                 -3.94162800    3.19047800   -1.41492800
 C                 -1.70295800    2.15952500    0.02681400
 H                 -0.60470600    4.06231800    1.67114400
 H                 -1.23566835    6.42740429    1.84365259
 C                 -2.62184300    1.26213100   -0.68718700
 C                 -3.67377300    1.85338500   -1.47986300
 O                 -2.43956400    0.00545800   -0.68644200
 H                 -2.60576600   -0.95340800    0.64416000
 C                 -0.42578700    2.36444600   -1.51454600
 C                  0.14190000    1.13241500   -1.88620500
 H                 -1.08210600    2.85306500   -2.22836600
 H                  0.23463800    3.02817400   -0.96203100
 H                  0.96499800    0.69290300   -1.34630500
 N                 -0.41266200    0.33288800   -2.85400200
 O                  0.07056500   -0.86247100   -3.01670700
 O                 -1.34198700    0.73632800   -3.59436400
 H                 -0.76452657    1.80684755    0.40079938
 H                 -4.26443200    1.18510100   -2.09952300
 C                  0.25720600   -2.65917000    0.08687900
 N                  1.06844700   -1.81611700   -0.62640700
 N                 -1.02621300   -2.64684600   -0.36283500
 H                 -1.25796900   -1.98793900   -1.09955300
 H                  0.71407700   -1.48478500   -1.55368300
 C                  2.28934600   -1.25017800   -0.24705500
 C                  3.17798800   -0.88646300   -1.27524300
 C                  2.60990300   -0.93001900    1.07842900
 C                  4.36382800   -0.22356300   -0.97026600
 H                  2.91812500   -1.11287400   -2.30305400
 C                  3.81246200   -0.28015600    1.36430600
 H                  1.91788500   -1.17137100    1.87424000
 C                  4.70318900    0.07731600    0.35315800
 H                  5.63078000    0.58704400    0.58232600
 C                 -2.07795000   -3.56535800    0.05064000
 C                 -3.39880600   -2.82526400    0.34005200
 C                 -2.33369100   -4.66348800   -0.99849600
 H                 -1.73212900   -4.04434600    0.97016400
 C                 -4.43431500   -3.80457500    0.89626700
 C                 -3.39179300   -5.65618600   -0.49546600
 H                 -2.66673500   -4.19324500   -1.93339300
 H                 -1.38338200   -5.16950900   -1.19736400
 C                 -4.69203400   -4.93004300   -0.12333000
 H                 -5.37262000   -3.28611800    1.11097600
 H                 -4.06257400   -4.23668400    1.83352400
 H                 -3.58570500   -6.41481100   -1.26192000
 H                 -3.00033100   -6.17639000    0.38951800
 H                 -5.42056400   -5.63309200    0.29475600
 H                 -5.13876300   -4.49445000   -1.02740400
 C                  5.33919700    0.15346600   -2.06123700
 C                  4.09220900    0.06526400    2.80857400
 F                  4.81365900    0.04477900   -3.30764200
 F                  5.77921900    1.43839700   -1.92386500
 F                  6.45375700   -0.63900200   -2.02964800
 F                  5.30508800    0.64506900    2.99522200
 F                  3.15697800    0.93454000    3.30356700
 F                  4.04876100   -1.03801300    3.61036300
 H                 -3.77120600   -2.37580000   -0.58633900
 N                 -3.17167600   -1.61410000    1.24492200
 C                 -2.44924900   -1.90782800    2.51964000
 C                 -4.43708200   -0.85471700    1.50595000
 H                 -3.04693200   -2.60267600    3.11215300
 H                 -1.47366100   -2.33808800    2.29102400
 H                 -2.32921500   -0.96557000    3.05733600
 H                 -4.94880200   -0.70263400    0.55490000
 H                 -5.06193700   -1.41308200    2.20290800
 H                 -4.15689900    0.10717500    1.93846700
 S                  0.79506100   -3.64670600    1.36200800
