73
F:55-60;
P      -2.399219        0.335127        1.183981  
C      -2.392987        2.082524        0.505269  
O      -3.768766        2.446288        0.268803  
H      -2.000257        2.783943        1.247869  
P      -0.209962        0.977715       -0.976650  
C      -1.594994        2.227829       -0.795724  
O      -1.010844        3.543507       -0.862317  
H      -2.284286        2.139991       -1.642049  
C      -0.097557        0.644710       -2.766446  
C      -2.703883        0.545780        2.967135  
H      -0.134282        1.572533       -3.342619  
H       0.849570        0.136827       -2.966854  
H      -0.916441       -0.014533       -3.063587  
H      -3.507026        1.266372        3.139483  
H      -2.988896       -0.418009        3.394258  
H      -1.788559        0.885634        3.456143  
C       0.982339        2.279539       -0.638555  
C       0.336665        3.522033       -0.628062  
C       1.044452        4.701715       -0.410782  
H       0.527701        5.655904       -0.407271  
C       2.359669        2.207264       -0.425285  
C       3.076930        3.378464       -0.198196  
H       4.148406        3.331144       -0.026657  
C       2.417470        4.612067       -0.193467  
H       2.981652        5.522755       -0.013792  
C      -4.027315        0.098240        0.453295  
C      -4.548376        1.339788        0.065158  
C      -5.823735        1.449161       -0.481488  
C      -4.786864       -1.059852        0.286174  
C      -6.062816       -0.964612       -0.262970  
H      -6.662961       -1.858227       -0.401796  
C      -6.569621        0.283505       -0.639962  
H      -6.211306        2.418381       -0.777724  
H      -7.564068        0.350501       -1.071534  
Rh      -0.567601       -0.847611        0.436472  
C       4.175103       -0.329288        1.414634  
C       2.901744       -0.898798        1.282822  
C       2.497018       -1.431590        0.058283  
C       3.378538       -1.386583       -1.040759  
C       4.644208       -0.819723       -0.892934  
C       5.055864       -0.286270        0.336267  
O       4.459108        0.187359        2.639701  
H       2.229537       -0.850257        2.132831  
H       3.055210       -1.794603       -1.992442  
O       5.558913       -0.729504       -1.894363  
H       6.042651        0.155547        0.407366  
C       1.168386       -2.015253       -0.197822  
H       0.986032       -2.216734       -1.253509  
C       1.004446       -3.494610        1.922853  
H       1.728437       -4.260203        1.621970  
H       1.531411       -2.765672        2.533480  
H       0.232153       -3.962572        2.536301  
N      -0.482708       -3.779746        0.010098  
H      -0.368669       -4.765843        0.203191  
C       0.415453       -2.869956        0.685710  
C      -1.412361       -3.387501       -0.885641  
O      -1.649834       -2.175611       -1.077740  
H       2.865705        1.245319       -0.439574  
H      -4.382003       -2.023744        0.585446  
H      -0.735732       -2.045153        1.543999  
H       0.215778       -0.067283        1.520683  
C      -2.153729       -4.446687       -1.629912  
H      -1.835170       -4.436265       -2.675273  
H      -1.987879       -5.446247       -1.227526  
H      -3.220422       -4.217510       -1.613724  
C       5.183697       -1.228109       -3.170827  
H       4.969039       -2.301989       -3.131882  
H       4.308864       -0.696449       -3.563389  
H       6.037559       -1.052354       -3.823334  
C       5.718585        0.825897        2.800656  
H       6.544168        0.124361        2.636559  
H       5.821832        1.674952        2.114911  
H       5.744394        1.183164        3.828942  
