73
F:47-60;
P      -1.267812        1.491122       -1.210164  
C      -3.009280        1.394482       -0.545846  
O      -3.538799        2.734052       -0.545124  
H      -3.645039        0.795244       -1.205951  
P      -1.814659       -0.555084        1.138524  
C      -3.055420        0.821204        0.870645  
O      -4.365663        0.284925        1.133345  
H      -2.887061        1.627563        1.592718  
C      -1.485278       -0.499278        2.931975  
C      -1.472642        1.497488       -3.020343  
H      -2.419314       -0.391282        3.488900  
H      -0.996458       -1.425094        3.242992  
H      -0.819042        0.337082        3.155116  
H      -2.284622        2.167401       -3.314476  
H      -0.541770        1.832801       -3.482162  
H      -1.685268        0.481014       -3.358727  
C      -3.156224       -1.746416        0.961031  
C      -4.386637       -1.076200        0.998263  
C      -5.591235       -1.771259        0.936815  
H      -6.533646       -1.234415        0.967952  
C      -3.127094       -3.137961        0.858686  
C      -4.324738       -3.844981        0.791276  
H      -4.312425       -4.927033        0.709134  
C      -5.542925       -3.159264        0.831448  
H      -6.474001       -3.715729        0.776656  
C      -1.225512        3.224661       -0.724670  
C      -2.531113        3.657263       -0.451961  
C      -2.800082        4.981636       -0.120479  
C      -0.163707        4.126094       -0.651162  
C      -0.419310        5.453487       -0.315774  
H       0.398688        6.163557       -0.250152  
C      -1.729378        5.870347       -0.058619  
H      -3.816946        5.297067        0.088742  
H      -1.920649        6.906451        0.204940  
Rh      -0.019608       -0.269210       -0.364799  
C       5.641468       -0.704273       -0.510944  
C       4.378612       -1.139930       -0.922233  
C       3.236711       -0.703470       -0.244438  
C       3.359800        0.180564        0.827684  
C       4.626740        0.610510        1.228250  
C       5.781296        0.175303        0.566825  
O       6.690648       -1.183831       -1.229695  
H       4.305646       -1.817326       -1.767663  
H       2.486698        0.562083        1.348165  
O       4.647537        1.473133        2.279143  
H       6.758821        0.521973        0.874912  
C       1.945704       -1.273021       -0.711228  
H       1.983776       -1.615666       -1.745435  
C       1.419877       -2.419375        1.547635  
H       0.544561       -2.814233        2.069638  
H       2.200684       -3.191560        1.578367  
H       1.793820       -1.557133        2.099486  
N       0.382277       -3.136728       -0.552034  
H       0.628923       -4.088059       -0.306253  
C       1.085637       -2.068942        0.128588  
C      -0.452386       -2.927228       -1.586575  
O      -0.801945       -1.763628       -1.896539  
H       0.850463        3.791021       -0.854319  
H      -2.175426       -3.664598        0.842411  
H       1.227536        0.186301       -1.297019  
H       0.554679        0.691805        0.705675  
C      -0.954149       -4.108818       -2.346153  
H      -2.026605       -4.001805       -2.516330  
H      -0.469802       -4.134262       -3.325973  
H      -0.756175       -5.054813       -1.840570  
C       5.911993        1.952132        2.715652  
H       6.556564        1.129951        3.046466  
H       6.418563        2.516570        1.924673  
H       5.707190        2.612389        3.557034  
C       7.993875       -0.755295       -0.858868  
H       8.099959        0.330396       -0.962364  
H       8.230711       -1.047967        0.170262  
H       8.678605       -1.252690       -1.543954  
