79
mapping.S.ts1 optimized geometry
C      -3.587029        4.441664        1.734851  
C      -3.146645        3.155620        1.454529  
C      -1.790283        2.914807        1.142606  
C      -0.870977        4.003048        1.105465  
C      -1.338407        5.299912        1.393629  
C      -2.675322        5.516431        1.709560  
H      -1.998273        0.764576        0.920020  
H      -4.631346        4.621512        1.975225  
H      -3.839228        2.317375        1.471819  
C      -1.290117        1.590348        0.901810  
C       0.482213        3.752100        0.657085  
H      -0.640471        6.133857        1.362058  
H      -3.020677        6.522122        1.935558  
C       1.011638        2.402255        0.640118  
C       0.039086        1.335130        0.707339  
O       2.262012        2.186843        0.496269  
H       2.967589        0.793925        0.875809  
C       0.299043        4.017345       -1.393353  
C      -0.829825        3.417315       -1.961162  
H       1.275428        3.615612       -1.648301  
H       0.239138        5.095818       -1.279188  
H      -1.805546        3.882185       -1.978950  
N      -0.807825        2.155663       -2.504455  
O      -1.848482        1.689456       -3.044731  
O       0.276811        1.467933       -2.488857  
H       1.214835        4.542569        0.804392  
H       0.388274        0.316889        0.593256  
C       1.459441       -1.504676       -1.258441  
N       0.131746       -1.193776       -1.507950  
N       2.236486       -0.393051       -1.266909  
H       1.755244        0.496561       -1.352870  
H      -0.009680       -0.281163       -1.967768  
C      -1.032928       -1.732663       -0.954460  
C      -2.248956       -1.181124       -1.402280  
C      -1.064975       -2.700475        0.060727  
C      -3.455248       -1.587591       -0.840562  
H      -2.232772       -0.411485       -2.168684  
C      -2.289233       -3.096640        0.604229  
H      -0.145023       -3.135375        0.426308  
C      -3.497175       -2.551512        0.171404  
H      -4.438246       -2.862910        0.605155  
C       3.697030       -0.267962       -1.222112  
C       4.321070       -0.682924        0.132809  
C       4.415935       -0.956049       -2.396017  
H       3.862378        0.811008       -1.316592  
C       5.813075       -0.323741        0.134537  
C       5.914273       -0.625368       -2.376588  
H       4.270024       -2.037497       -2.323663  
H       3.949310       -0.614311       -3.326103  
C       6.534121       -1.020812       -1.030731  
H       6.269981       -0.623607        1.081551  
H       5.926355        0.763350        0.033643  
H       6.417904       -1.146860       -3.198346  
H       6.054577        0.453115       -2.536360  
H       7.597256       -0.757609       -1.001036  
H       6.461213       -2.109175       -0.900268  
C      -2.255323       -4.110103        1.725016  
C      -4.725514       -0.900224       -1.285695  
F      -1.671128       -3.588914        2.849543  
F      -1.525091       -5.213989        1.394115  
F      -3.488645       -4.544591        2.090757  
F      -4.884125        0.303527       -0.650075  
F      -4.734345       -0.636206       -2.619789  
F      -5.841256       -1.630332       -1.015778  
H       4.201187       -1.759447        0.268702  
S       2.032625       -3.073512       -0.992478  
C       2.581811       -0.936862        1.984915  
C       4.324998        0.596538        2.413945  
C       2.122028       -0.135342        3.210141  
H       3.148117       -1.829771        2.261056  
H       1.789292       -1.224504        1.298479  
C       3.238050        0.928106        3.442321  
H       4.875682        1.461623        2.046840  
H       5.018720       -0.158786        2.788630  
H       1.165568        0.353152        3.010694  
H       1.996303       -0.798595        4.068827  
H       2.846440        1.931095        3.258966  
H       3.646270        0.893102        4.454723  
N       3.546112       -0.017515        1.273862  
