79
mapping.S.ts4 optimized geometry
C       4.679271        4.044298       -0.640537  
C       3.392946        4.460649       -0.326581  
C       2.324518        3.536629       -0.289959  
C       2.573168        2.161579       -0.586136  
C       3.890488        1.760646       -0.901513  
C       4.926665        2.684776       -0.925496  
H       0.806831        4.974051        0.294729  
H       5.495453        4.761404       -0.664539  
H       3.191475        5.505393       -0.098985  
C       0.991124        3.924855        0.069275  
C       1.473682        1.234771       -0.603477  
H       4.083619        0.714602       -1.124203  
H       5.935667        2.358807       -1.165805  
C       0.172797        1.606956       -0.093565  
C      -0.031679        3.020999        0.160779  
O      -0.736520        0.730465        0.060338  
H      -2.414089        0.820792        0.209921  
C       0.889368        1.224410       -2.685128  
C      -0.127199        0.300936       -2.875872  
H       0.658552        2.282403       -2.739123  
H       1.891377        0.925549       -2.973312  
H       0.050758       -0.758248       -3.000074  
N      -1.466327        0.642102       -2.819281  
O      -2.325922       -0.311871       -2.910117  
O      -1.840666        1.836508       -2.722771  
H       1.709992        0.178691       -0.612292  
H      -1.014075        3.351422        0.474592  
C      -1.689753       -2.163970        0.360308  
N      -0.497062       -2.367976       -0.322777  
N      -2.633974       -1.604091       -0.415272  
H      -2.371552       -1.237428       -1.341043  
H      -0.569978       -2.314296       -1.331571  
C       0.808663       -2.176993        0.144865  
C       1.857908       -2.578564       -0.696783  
C       1.113324       -1.517542        1.343156  
C       3.181216       -2.308819       -0.349100  
H       1.632307       -3.082969       -1.631361  
C       2.442767       -1.261534        1.674021  
H       0.315790       -1.161218        1.978503  
C       3.493458       -1.648415        0.840971  
H       4.521090       -1.434547        1.103096  
C      -4.023159       -1.360621       -0.058205  
C      -4.370499        0.126413       -0.276899  
C      -4.951426       -2.247352       -0.912016  
H      -4.146669       -1.613730        0.998270  
C      -5.841552        0.378975        0.080118  
C      -6.431308       -1.976074       -0.613511  
H      -4.742829       -2.045618       -1.971092  
H      -4.693614       -3.293345       -0.714977  
C      -6.754615       -0.488731       -0.801558  
H      -6.097550        1.434604       -0.046121  
H      -6.017978        0.118953        1.130116  
H      -7.059349       -2.591858       -1.267177  
H      -6.652484       -2.266747        0.422853  
H      -7.800527       -0.285145       -0.547354  
H      -6.610880       -0.211147       -1.854603  
C       2.704693       -0.503840        2.955687  
C       4.277374       -2.668316       -1.323812  
F       2.301466       -1.214798        4.051044  
F       2.018540        0.676245        2.990981  
F       4.016016       -0.204258        3.139798  
F       4.033625       -3.840661       -1.971347  
F       4.406253       -1.709976       -2.297076  
F       5.493516       -2.783388       -0.730540  
H      -4.190467        0.373588       -1.328219  
S      -1.920847       -2.662328        1.963636  
C      -3.576346        2.517043        0.171698  
C      -3.419387        0.886603        1.994095  
C      -3.449527        3.235854        1.525727  
H      -4.537262        2.684844       -0.310161  
H      -2.784972        2.760116       -0.537005  
C      -2.797555        2.197686        2.459197  
H      -2.858448       -0.013739        2.250900  
H      -4.452909        0.794466        2.331509  
H      -2.861293        4.153254        1.437615  
H      -4.442821        3.502342        1.900671  
H      -1.714721        2.165393        2.307897  
H      -3.002911        2.389634        3.515110  
N      -3.416697        1.028227        0.486076  
