90
mapping.S.ts3 optimized geometry
C      -0.369974        1.533859        3.528140  
C      -0.551615        2.897456        3.314012  
C      -1.048533        3.372981        2.083609  
C      -1.385366        2.461056        1.057717  
C      -1.200406        1.097177        1.294048  
C      -0.691856        0.630643        2.508174  
H      -0.927593        5.460328        2.679813  
H       0.021153        1.175359        4.476080  
H      -0.301079        3.615660        4.091245  
C      -1.189340        4.796827        1.856775  
C      -1.996056        2.940008       -0.256015  
H      -1.461935        0.384342        0.523413  
H      -0.551890       -0.436485        2.655013  
C      -1.930721        4.475192       -0.467414  
C      -1.598532        5.321422        0.675199  
O      -2.212054        4.963307       -1.564463  
H       3.033559        0.673127       -0.715465  
C      -1.372966        2.219575       -1.481960  
C       0.114552        2.336693       -1.494763  
H      -1.828439        2.651030       -2.383414  
H      -1.662811        1.165703       -1.467640  
H       0.623107        3.133545       -0.969348  
N       0.895915        1.470609       -2.102061  
O       2.203686        1.548542       -2.007976  
O       0.402050        0.494084       -2.835292  
C      -3.517542        2.602924       -0.216139  
H      -1.661390        6.395809        0.524581  
H      -3.642083        1.523678       -0.087417  
H      -4.008770        3.115723        0.617924  
H      -3.982543        2.914724       -1.156989  
C       1.120295       -1.973580       -0.662675  
N      -0.112754       -1.556141       -1.114062  
N       2.117566       -1.475284       -1.446281  
H       1.828834       -0.825845       -2.179925  
H      -0.056644       -0.835322       -1.865613  
C      -1.418947       -1.786694       -0.685542  
C      -2.426656       -1.305198       -1.552273  
C      -1.808473       -2.370703        0.529497  
C      -3.766219       -1.375687       -1.192368  
H      -2.138739       -0.854866       -2.496146  
C      -3.164277       -2.443511        0.862928  
H      -1.055411       -2.739590        1.210943  
C      -4.158494       -1.950773        0.022459  
H      -5.203832       -2.000884        0.299236  
C       3.574637       -1.635145       -1.315498  
C       4.082307       -1.016804        0.009335  
C       4.008333       -3.101530       -1.521639  
H       3.982929       -1.050274       -2.142270  
C       5.534433       -1.360166        0.358705  
C       5.489560       -3.326414       -1.204620  
H       3.408125       -3.740630       -0.870026  
H       3.777000       -3.367685       -2.559069  
C       5.785562       -2.869771        0.228903  
H       5.740027       -1.021622        1.377949  
H       6.236339       -0.850727       -0.302953  
H       5.729488       -4.388428       -1.330352  
H       6.124466       -2.762665       -1.903509  
H       6.826586       -3.077468        0.500409  
H       5.143607       -3.421103        0.928830  
C      -3.511788       -3.066393        2.196545  
C      -4.828970       -0.869692       -2.141102  
F      -2.876124       -2.432680        3.227611  
F      -3.125931       -4.375091        2.255338  
F      -4.840470       -3.032797        2.472877  
F      -5.863859       -0.278377       -1.480591  
F      -4.352063        0.042190       -3.028860  
F      -5.368882       -1.889485       -2.874961  
H       3.453548       -1.448496        0.787872  
N       3.756265        0.494013        0.032661  
C       4.825594        1.519703       -0.414505  
C       2.976208        0.855543        1.320016  
H       4.223944        2.423164       -0.518219  
H       2.072273        0.248732        1.208078  
S       1.367991       -2.973738        0.689606  
C       3.662810        0.439749        2.619492  
C       2.571889        2.325006        1.324501  
C       5.343909        1.198645       -1.819415  
C       5.937595        1.817943        0.588297  
H       4.514194        1.044285       -2.513036  
H       5.910374        2.071824       -2.159317  
H       6.011278        0.335749       -1.851244  
H       6.552236        0.951373        0.830925  
H       6.584176        2.571826        0.125463  
H       5.544598        2.248236        1.510766  
H       3.909424       -0.624487        2.643084  
H       4.566433        1.017863        2.821367  
H       2.950781        0.631233        3.429292  
H       1.799009        2.458126        2.085688  
H       3.418291        2.974681        1.567721  
H       2.161370        2.614551        0.355339  
