90
mapping.S.ts4 optimized geometry
C       2.180345        0.873144        2.828719  
C       2.483364        1.342091        1.553943  
C       1.655154        2.287752        0.920344  
C       0.502457        2.777317        1.578998  
C       0.215005        2.295753        2.859976  
C       1.042006        1.355331        3.482938  
H       2.876495        2.353607       -0.874139  
H       2.819137        0.136845        3.305511  
H       3.360171        0.974700        1.028407  
C       1.987338        2.768063       -0.406173  
C      -0.458526        3.716927        0.862634  
H      -0.668584        2.647198        3.382794  
H       0.792660        0.997281        4.478363  
C       0.102667        4.342232       -0.437240  
C       1.267465        3.715146       -1.054510  
O      -0.445877        5.319630       -0.950728  
H      -2.839118        0.217745        0.149309  
C      -1.712638        2.842377        0.417834  
C      -1.389523        1.633092       -0.398848  
H      -2.186415        2.555465        1.363679  
H      -2.400061        3.495650       -0.125107  
H      -0.681928        0.904394       -0.026281  
N      -1.507566        1.649188       -1.744395  
O      -0.971149        0.664986       -2.443809  
O      -2.150444        2.537554       -2.369643  
C      -0.975108        4.839501        1.784726  
H       1.565418        4.081797       -2.032928  
H      -1.533347        4.422890        2.628382  
H      -0.139421        5.430463        2.174717  
H      -1.639636        5.496232        1.217951  
C      -0.474567       -2.045129       -0.551749  
N       0.559292       -1.201762       -0.906195  
N      -1.650599       -1.608891       -1.068483  
H      -1.591714       -0.799411       -1.712944  
H       0.261944       -0.431521       -1.525443  
C       1.933893       -1.247261       -0.671453  
C       2.552615       -1.936475        0.380824  
C       2.733230       -0.484241       -1.546704  
C       3.941089       -1.874155        0.526998  
H       1.953085       -2.509399        1.073741  
C       4.111054       -0.426191       -1.373931  
H       2.261870        0.058557       -2.359010  
C       4.737358       -1.122437       -0.333883  
H       5.811857       -1.080298       -0.208669  
C      -2.943270       -2.261344       -0.963898  
C      -4.033501       -1.191201       -0.731257  
C      -3.249064       -3.061312       -2.244761  
H      -2.907311       -2.959133       -0.125258  
C      -5.445847       -1.787162       -0.718722  
C      -4.646242       -3.686916       -2.195410  
H      -3.175788       -2.385236       -3.107155  
H      -2.469559       -3.823016       -2.349775  
C      -5.699710       -2.591367       -2.006296  
H      -6.178685       -0.982653       -0.658674  
H      -5.590456       -2.435716        0.147507  
H      -4.836678       -4.247106       -3.117678  
H      -4.700911       -4.399667       -1.360694  
H      -6.707403       -3.018310       -1.959667  
H      -5.671478       -1.910316       -2.867972  
C       4.954179        0.441000       -2.280183  
C       4.556281       -2.613851        1.693973  
F       4.338440        0.738202       -3.453048  
F       6.145278       -0.140782       -2.586120  
F       5.251246        1.638047       -1.679879  
F       5.911327       -2.672778        1.631232  
F       4.243410       -2.014896        2.885685  
F       4.103423       -3.895922        1.780472  
H      -3.977669       -0.488865       -1.568364  
N      -3.682235       -0.306674        0.486324  
C      -3.146793       -1.052048        1.732855  
C      -4.654690        0.867608        0.767566  
H      -2.246961       -1.540671        1.358879  
H      -4.030931        1.544020        1.352316  
S      -0.342484       -3.439980        0.404768  
C      -5.000341        1.590291       -0.533802  
C      -5.877501        0.527658        1.618098  
C      -4.065917       -2.137060        2.285637  
C      -2.698138       -0.050028        2.795209  
H      -4.201802       -2.954481        1.575916  
H      -3.569526       -2.552591        3.168878  
H      -5.043723       -1.763085        2.589850  
H      -3.537943        0.460108        3.274720  
H      -2.152257       -0.607711        3.561791  
H      -2.014087        0.692801        2.376826  
H      -4.103933        1.821534       -1.117657  
H      -5.699853        1.022503       -1.153184  
H      -5.479774        2.536031       -0.263007  
H      -6.482146        1.438981        1.677203  
H      -6.499960       -0.261704        1.196725  
H      -5.599192        0.251897        2.636779  
