90
mapping.S.ts5 optimized geometry
C      -4.937382        2.862554        1.654982  
C      -4.186526        1.713207        1.873524  
C      -2.807534        1.687932        1.583767  
C      -2.167293        2.840607        1.065154  
C      -2.941449        3.987310        0.853498  
C      -4.308405        4.004153        1.143209  
H      -2.578686       -0.379899        2.206087  
H      -6.001136        2.873439        1.874824  
H      -4.655076        0.813479        2.265151  
C      -2.044692        0.485779        1.819970  
C      -0.695758        2.816978        0.677153  
H      -2.479059        4.882237        0.449027  
H      -4.883127        4.909104        0.964744  
C       0.035581        1.525857        1.067229  
C      -0.711725        0.399994        1.578283  
O       1.268786        1.459109        0.912844  
H       2.885641        0.581413        0.634039  
C      -0.662968        2.943907       -0.929464  
C       0.671226        2.819898       -1.558644  
H      -1.342970        2.204394       -1.352473  
H      -1.092255        3.936401       -1.119398  
H       1.495542        3.466003       -1.293572  
N       0.975238        1.857362       -2.421521  
O       2.181674        1.709391       -2.875634  
O       0.067948        1.004398       -2.848671  
C       0.063002        4.021347        1.280731  
H      -0.159890       -0.517884        1.759445  
H      -0.383250        4.959733        0.939733  
H       0.023441        3.990332        2.375117  
H       1.107964        3.996235        0.964913  
C       1.138616       -1.566331       -0.691759  
N      -0.064167       -1.150429       -1.206177  
N       2.189631       -0.917346       -1.273687  
H       1.988063       -0.243205       -2.011304  
H       0.002625       -0.344702       -1.875879  
C      -1.388713       -1.452502       -0.880643  
C      -2.359606       -0.574388       -1.406337  
C      -1.823201       -2.535921       -0.099176  
C      -3.706186       -0.741392       -1.107414  
H      -2.038223        0.252279       -2.029973  
C      -3.182849       -2.684588        0.184924  
H      -1.102115       -3.236328        0.294435  
C      -4.140978       -1.793792       -0.297990  
H      -5.189220       -1.915143       -0.056660  
C       3.624778       -1.224452       -1.176258  
C       4.189365       -0.950875        0.241101  
C       3.954752       -2.642109       -1.686462  
H       4.090342       -0.530130       -1.878537  
C       5.636953       -1.417110        0.452680  
C       5.445783       -2.954231       -1.544575  
H       3.376822       -3.375434       -1.117668  
H       3.631710       -2.693611       -2.731998  
C       5.846393       -2.847244       -0.071702  
H       5.849133       -1.403067        1.522965  
H       6.354396       -0.754224       -0.031761  
H       5.648814       -3.960823       -1.927700  
H       6.042402       -2.249953       -2.142462  
H       6.897411       -3.120781        0.074104  
H       5.239172       -3.548056        0.516880  
C      -3.606904       -3.796146        1.116321  
C      -4.710575        0.210526       -1.713992  
F      -3.521972       -3.399931        2.427365  
F      -2.830833       -4.906906        0.999519  
F      -4.894877       -4.188250        0.916689  
F      -5.862396        0.285330       -0.993147  
F      -4.227276        1.477955       -1.825635  
F      -5.067460       -0.180232       -2.977185  
H       3.557224       -1.518148        0.923063  
N       3.920390        0.515390        0.637827  
C       4.307998        1.601887       -0.404122  
C       4.228935        0.866128        2.111036  
H       3.601944        1.420651       -1.217494  
H       3.634620        1.768973        2.258579  
S       1.320126       -2.708837        0.557713  
C       3.660032       -0.208659        3.036573  
C       5.685298        1.206397        2.420353  
C       5.726826        1.499197       -0.958009  
C       4.001346        3.006098        0.119024  
H       5.877109        0.596274       -1.553416  
H       5.869329        2.357004       -1.623734  
H       6.493836        1.541519       -0.181750  
H       4.724230        3.349843        0.863688  
H       4.052430        3.680632       -0.741169  
H       2.993927        3.054695        0.534094  
H       2.629460       -0.457186        2.763820  
H       4.261777       -1.122163        3.026330  
H       3.663607        0.191750        4.055101  
H       5.720455        1.512745        3.471602  
H       6.362964        0.361618        2.294786  
H       6.050174        2.041552        1.821395  
