78
mapping.S.ts2 optimized geometry
C      -4.502370       -1.237640       -1.247101  
C      -3.436258       -0.574367       -1.847970  
C      -2.141894       -1.123262       -1.819940  
C      -1.913325       -2.368891       -1.184475  
C      -2.990377       -3.010645       -0.569760  
C      -4.274897       -2.455338       -0.602059  
H      -1.259149        0.558750       -2.876582  
H      -5.497721       -0.804391       -1.266966  
H      -3.589981        0.377505       -2.346983  
C      -1.047872       -0.426534       -2.467239  
C      -0.496041       -2.934150       -1.102159  
H      -2.840750       -3.955467       -0.058062  
H      -5.095479       -2.977025       -0.117500  
C       0.461105       -2.329033       -2.162506  
C       0.183739       -0.972277       -2.621120  
O       1.452851       -2.953571       -2.542965  
H       2.163585       -1.870855        0.113833  
C       0.049655       -2.443916        0.291992  
C       1.553191       -2.700395        0.495243  
H      -0.150152       -1.377994        0.396664  
H      -0.530577       -2.976587        1.052394  
H       1.881591       -3.642878        0.062559  
N       1.864402       -2.791449        1.975364  
O       2.323323       -3.836818        2.413948  
O       1.624671       -1.797063        2.674895  
C      -0.466171       -4.471578       -1.172339  
H       0.968264       -0.461888       -3.171574  
H      -0.966036       -4.907016       -0.302860  
H      -0.970312       -4.817814       -2.080083  
H       0.564459       -4.830224       -1.197052  
C       1.691718        1.403095        0.817314  
N       0.483507        0.852048        1.284162  
N       2.777602        0.879265        1.457805  
H       2.635620        0.062292        2.031958  
H       0.563688        0.134051        1.991786  
C      -0.821967        1.205898        0.961322  
C      -1.854970        0.550797        1.661474  
C      -1.167588        2.156501       -0.014449  
C      -3.187490        0.852741        1.403638  
H      -1.604919       -0.190880        2.414096  
C      -2.513218        2.445603       -0.248966  
H      -0.388819        2.659356       -0.568348  
C      -3.538951        1.808869        0.448287  
H      -4.577131        2.037753        0.248840  
C       4.168632        1.174675        1.095081  
C       4.513933        0.808952       -0.367749  
C       4.528015        2.641086        1.403285  
H       4.769336        0.541255        1.757075  
C       6.007749        1.109051       -0.632471  
C       6.005979        2.929560        1.108675  
H       3.895441        3.289210        0.787881  
H       4.293059        2.842734        2.454927  
C       6.344904        2.579214       -0.346160  
H       6.249882        0.854560       -1.670525  
H       6.626680        0.471380        0.013042  
H       6.226046        3.984123        1.314735  
H       6.637303        2.327116        1.778410  
H       7.405900        2.769263       -0.550962  
H       5.760354        3.223346       -1.018555  
C      -2.836959        3.431945       -1.347097  
C      -4.256826        0.177762        2.230635  
F      -2.647488        2.873138       -2.587347  
F      -2.042040        4.535992       -1.302538  
F      -4.123801        3.864646       -1.311973  
F      -3.957849       -1.122365        2.505751  
F      -4.412837        0.801244        3.440252  
F      -5.475242        0.189054        1.629679  
H       3.917225        1.471014       -1.003646  
N       4.086099       -0.565816       -0.707105  
C       4.874390       -1.616895       -0.061025  
C       4.051323       -0.774653       -2.155574  
H       4.881568       -1.475505        1.025019  
H       4.413805       -2.587301       -0.278225  
H       5.921237       -1.653631       -0.413320  
H       3.436617        0.005916       -2.618002  
H       5.055903       -0.748384       -2.620131  
H       3.596290       -1.746002       -2.369776  
O       1.741186        2.275382       -0.049726  
