78
mapping.S.ts3 optimized geometry
C       1.602361        0.146119        3.657016  
C       1.434071        1.518312        3.823254  
C       0.728383        2.277108        2.869102  
C       0.175728        1.644289        1.730563  
C       0.368277        0.271798        1.576128  
C       1.073149       -0.476623        2.521712  
H       1.013706        4.146001        3.940744  
H       2.148665       -0.432101        4.396758  
H       1.848408        2.023639        4.692405  
C       0.573581        3.705845        3.047237  
C      -0.703464        2.422086        0.757100  
H      -0.043530       -0.234136        0.714602  
H       1.209622       -1.540174        2.354628  
C      -0.636902        3.964284        0.923677  
C      -0.063402        4.501391        2.151913  
O      -1.110009        4.701975        0.055943  
H       1.675843        1.548650       -0.767192  
C      -0.459664        2.053205       -0.725674  
C       0.985780        2.312444       -1.154532  
H      -1.140583        2.660703       -1.327385  
H      -0.709917        1.005404       -0.884364  
H       1.317753        3.316726       -0.891518  
N       1.109732        2.222165       -2.660722  
O       1.444781        3.221020       -3.284910  
O       0.863005        1.130492       -3.190293  
C      -2.183527        2.048397        1.090960  
H      -0.132349        5.575939        2.297694  
H      -2.321106        0.971955        0.952764  
H      -2.418913        2.303568        2.129454  
H      -2.856915        2.591539        0.420381  
C       1.076008       -1.920500       -1.060314  
N      -0.141100       -1.491908       -1.628244  
N       2.157269       -1.514097       -1.794016  
H       2.009952       -0.735321       -2.419792  
H      -0.067881       -0.924709       -2.462116  
C      -1.416474       -1.524632       -1.068911  
C      -2.432951       -0.820953       -1.744432  
C      -1.735902       -2.174694        0.136213  
C      -3.717896       -0.749473       -1.215054  
H      -2.204442       -0.314223       -2.677464  
C      -3.030821       -2.081673        0.648951  
H      -0.973001       -2.726547        0.665044  
C      -4.036327       -1.369892       -0.004791  
H      -5.032842       -1.301830        0.410230  
C       3.557285       -1.713978       -1.390033  
C       3.975250       -0.840427       -0.180343  
C       3.895637       -3.199672       -1.165447  
H       4.139799       -1.386574       -2.258410  
C       5.471244       -1.073943        0.130017  
C       5.388317       -3.385591       -0.864580  
H       3.306413       -3.579404       -0.327055  
H       3.602472       -3.759488       -2.061367  
C       5.789874       -2.556733        0.362103  
H       5.755083       -0.481230        1.006369  
H       6.069782       -0.711555       -0.716416  
H       5.601557       -4.448914       -0.701599  
H       5.984847       -3.060150       -1.729528  
H       6.858151       -2.680277        0.579413  
H       5.234005       -2.917423        1.239618  
C      -3.297439       -2.748277        1.980465  
C      -4.744576        0.075772       -1.957008  
F      -2.618413       -2.125029        2.991314  
F      -2.888674       -4.049545        1.988794  
F      -4.610341       -2.741997        2.326528  
F      -4.454783        1.410998       -1.883157  
F      -4.784066       -0.234910       -3.284534  
F      -6.002195       -0.081034       -1.472709  
H       3.382739       -1.177808        0.678425  
N       3.616712        0.583057       -0.380642  
C       4.323744        1.248977       -1.476983  
C       3.758458        1.362442        0.851482  
H       3.906100        2.254859       -1.600674  
H       5.407613        1.357465       -1.293914  
H       4.184823        0.706110       -2.416863  
H       3.226608        0.860548        1.662769  
H       4.812239        1.508852        1.150643  
H       3.312881        2.353081        0.702387  
O       1.128917       -2.611797       -0.044262  
