78
mapping.S.ts5 optimized geometry
C      -4.501835       -1.237096       -1.247277  
C      -3.435698       -0.574005       -1.848305  
C      -2.141375       -1.122978       -1.820223  
C      -1.912873       -2.368534       -1.184576  
C      -2.989942       -3.010096       -0.569705  
C      -4.274424       -2.454689       -0.602024  
H      -1.258562        0.558810       -2.877149  
H      -5.497150       -0.803768       -1.267168  
H      -3.589365        0.377797       -2.347469  
C      -1.047327       -0.426420       -2.467655  
C      -0.495641       -2.933924       -1.102271  
H      -2.840363       -3.954852       -0.057866  
H      -5.095016       -2.976224       -0.117325  
C       0.461531       -2.328978       -2.162693  
C       0.184252       -0.972255       -2.621463  
O       1.453202       -2.953642       -2.543142  
H       2.164155       -1.870756        0.113709  
C       0.050168       -2.443674        0.291834  
C       1.553705       -2.700304        0.495013  
H      -0.149495       -1.377725        0.396492  
H      -0.530085       -2.976252        1.052285  
H       1.881982       -3.642761        0.062175  
N       1.864895       -2.791657        1.975113  
O       2.323236       -3.837269        2.413633  
O       1.625604       -1.797190        2.674761  
C      -0.465956       -4.471356       -1.172350  
H       0.968796       -0.461997       -3.172011  
H      -0.965930       -4.906676       -0.302875  
H      -0.970078       -4.817597       -2.080103  
H       0.564630       -4.830137       -1.196979  
C       1.691430        1.403283        0.817494  
N       0.483251        0.852161        1.284356  
N       2.777347        0.879324        1.457847  
H       2.635409        0.061750        2.031178  
H       0.563478        0.134694        1.992501  
C      -0.822248        1.205842        0.961476  
C      -1.855163        0.550561        1.661619  
C      -1.167990        2.156324       -0.014352  
C      -3.187713        0.852293        1.403788  
H      -1.604961       -0.191109        2.414198  
C      -2.513683        2.445199       -0.248884  
H      -0.389284        2.659285       -0.568252  
C      -3.539306        1.808374        0.448419  
H      -4.577521        2.037090        0.248965  
C       4.168339        1.174968        1.095195  
C       4.513763        0.809278       -0.367634  
C       4.527506        2.641421        1.403452  
H       4.769135        0.541642        1.757206  
C       6.007493        1.109710       -0.632411  
C       6.005440        2.930095        1.108842  
H       3.894875        3.289518        0.788088  
H       4.292534        2.842992        2.455106  
C       6.344368        2.579914       -0.346037  
H       6.249626        0.855317       -1.670491  
H       6.626591        0.472141        0.013041  
H       6.225383        3.984670        1.314969  
H       6.636853        2.327673        1.778514  
H       7.405320        2.770191       -0.550858  
H       5.759666        3.223987       -1.018355  
C      -2.837528        3.431358       -1.347137  
C      -4.257002        0.177174        2.230731  
F      -2.647204        2.872647       -2.587315  
F      -2.043216        4.535855       -1.302204  
F      -4.124598        3.863346       -1.312553  
F      -3.957607       -1.122749        2.506348  
F      -4.413546        0.801006        3.440121  
F      -5.475266        0.187820        1.629488  
H       3.916868        1.471152       -1.003555  
N       4.086309       -0.565638       -0.706895  
C       4.874924       -1.616468       -0.060828  
C       4.051500       -0.774590       -2.155347  
H       4.882146       -1.475069        1.025215  
H       4.414611       -2.587015       -0.277981  
H       5.921765       -1.652930       -0.413182  
H       3.436628        0.005824       -2.617814  
H       5.056059       -0.748152       -2.619954  
H       3.596658       -1.746052       -2.369452  
O       1.740793        2.275767       -0.049360  
