90
mapping.R.ts1 optimized geometry
C      -2.779713        6.577903        0.817506  
C      -1.456603        6.403811        0.423475  
C      -0.935742        5.113944        0.199601  
C      -1.762627        3.972859        0.367038  
C      -3.092995        4.170039        0.757231  
C      -3.596962        5.453543        0.988113  
H       1.038728        5.844199       -0.347382  
H      -3.174075        7.575248        0.991498  
H      -0.804036        7.263236        0.286369  
C       0.450364        4.943961       -0.177370  
C      -1.236526        2.601608        0.000815  
H      -3.751948        3.318086        0.886865  
H      -4.631007        5.574289        1.300510  
C       0.289911        2.507131        0.003492  
C       1.035607        3.724128       -0.283680  
O       0.851222        1.414969        0.180202  
H       2.510387        0.294346        0.377097  
C      -1.642350        2.414491       -1.574142  
C      -1.209876        1.140566       -2.172960  
H      -1.230836        3.268392       -2.118363  
H      -2.735571        2.473809       -1.573027  
H      -1.796424        0.237920       -2.089397  
N      -0.021056        1.011804       -2.763613  
O       0.344792       -0.184714       -3.212397  
O       0.783557        1.986061       -2.918024  
C      -1.867678        1.451905        0.797700  
H       2.086466        3.628515       -0.529979  
H      -1.420206        0.507259        0.488824  
H      -1.699927        1.585629        1.871863  
H      -2.944098        1.393981        0.612380  
C       1.125038       -2.180320       -0.670718  
N      -0.142697       -1.930268       -1.149045  
N       2.037509       -1.343313       -1.234676  
H       1.655493       -0.723553       -1.962762  
H      -0.172365       -1.331716       -2.004832  
C      -1.371540       -2.148005       -0.528399  
C      -2.507959       -2.216925       -1.351289  
C      -1.539048       -2.179779        0.865197  
C      -3.780794       -2.304926       -0.787551  
H      -2.385583       -2.188240       -2.429105  
C      -2.818603       -2.275398        1.408720  
H      -0.677663       -2.091104        1.511560  
C      -3.954223       -2.341386        0.597224  
H      -4.943595       -2.409215        1.030904  
C       3.498774       -1.412386       -1.198483  
C       4.088826       -1.039955        0.188659  
C       4.077277       -2.755959       -1.690184  
H       3.816271       -0.653564       -1.914204  
C       5.618291       -1.010273        0.121113  
C       5.609593       -2.724370       -1.724605  
H       3.741246       -3.557100       -1.028012  
H       3.663162       -2.946765       -2.686190  
C       6.162174       -2.370824       -0.338615  
H       6.039883       -0.744691        1.090551  
H       5.936811       -0.250630       -0.599320  
H       5.989250       -3.697929       -2.055097  
H       5.952406       -1.974076       -2.451712  
H       7.256919       -2.330109       -0.353809  
H       5.870121       -3.145581        0.383285  
C      -2.958762       -2.324731        2.912641  
C      -4.985193       -2.282956       -1.698999  
F      -2.058908       -1.514809        3.541412  
F      -2.745990       -3.586461        3.395609  
F      -4.194159       -1.947292        3.339067  
F      -5.322467       -0.999450       -2.040934  
F      -4.766030       -2.947223       -2.866889  
F      -6.088504       -2.834767       -1.127401  
H       3.762551       -1.814638        0.884872  
N       3.471300        0.253819        0.754547  
C       4.007839        1.635542        0.308062  
C       3.250808        0.217069        2.296974  
H       3.214657        2.282557        0.688476  
H       3.138395        1.270330        2.564345  
S       1.474757       -3.416174        0.437969  
C       1.949331       -0.516197        2.608900  
C       4.416804       -0.381212        3.079584  
C       4.014913        1.776615       -1.209770  
C       5.316918        2.074227        0.958261  
H       3.052976        1.489899       -1.646230  
H       4.178463        2.835523       -1.436856  
H       4.826130        1.212299       -1.676777  
H       6.176318        1.486904        0.633722  
H       5.482953        3.113012        0.653205  
H       5.257077        2.059179        2.048545  
H       1.105466       -0.070558        2.075914  
H       2.020360       -1.574906        2.344029  
H       1.765945       -0.438212        3.685499  
H       4.165283       -0.295524        4.141507  
H       4.547572       -1.443893        2.853476  
H       5.360843        0.138934        2.912513  
