90
mapping.R.ts2 optimized geometry
C      -4.802666        2.003510       -0.091717  
C      -3.946387        1.378058       -0.991084  
C      -2.642798        1.867090       -1.200874  
C      -2.198930        3.019583       -0.513236  
C      -3.069333        3.627918        0.396227  
C      -4.356803        3.127817        0.611839  
H      -2.134054        0.289928       -2.604929  
H      -5.801808        1.612722        0.074558  
H      -4.268783        0.496655       -1.536144  
C      -1.755380        1.188453       -2.121742  
C      -0.812235        3.603263       -0.760185  
H      -2.741951        4.506705        0.944101  
H      -5.011177        3.617394        1.328160  
C       0.037904        2.838995       -1.806661  
C      -0.502008        1.622901       -2.401776  
O       1.143600        3.277965       -2.135620  
H       3.402251        0.850391        0.332176  
C       0.005599        3.655716        0.581937  
C       0.064197        2.378823        1.350309  
H       1.012864        4.001419        0.339457  
H      -0.478633        4.416938        1.208677  
H      -0.802938        1.995397        1.870931  
N       1.167125        1.673284        1.512534  
O       1.147358        0.583700        2.270410  
O       2.298817        2.000945        0.967161  
C      -0.959222        5.056950       -1.284217  
H       0.132722        1.093395       -3.105268  
H       0.034661        5.479958       -1.457090  
H      -1.523702        5.072390       -2.223190  
H      -1.489493        5.666861       -0.546545  
C       0.982234       -1.839224        0.017503  
N      -0.114713       -1.188336        0.544453  
N       2.137066       -1.357808        0.539397  
H       2.039586       -0.649382        1.286467  
H       0.133086       -0.521363        1.297948  
C      -1.484429       -1.405029        0.416944  
C      -2.111805       -2.024907       -0.675502  
C      -2.285831       -0.912868        1.466293  
C      -3.499782       -2.182279       -0.675914  
H      -1.516404       -2.381598       -1.503453  
C      -3.667383       -1.062963        1.434229  
H      -1.811017       -0.417891        2.307364  
C      -4.295209       -1.714525        0.369648  
H      -5.370710       -1.834765        0.349028  
C       3.464444       -1.902131        0.296803  
C       4.537825       -0.851657        0.652572  
C       3.682461       -3.166403        1.159388  
H       3.537949       -2.183026       -0.756787  
C       5.956200       -1.422606        0.517080  
C       5.088867       -3.745449        0.994396  
H       3.517517       -2.891460        2.210104  
H       2.912914       -3.889345        0.875070  
C       6.126732       -2.686740        1.375649  
H       6.679804       -0.676211        0.842453  
H       6.175213       -1.671614       -0.522243  
H       5.199888       -4.639608        1.618471  
H       5.242106       -4.052468       -0.049790  
H       7.146354       -3.066204        1.244842  
H       6.006903       -2.426567        2.436742  
C      -4.484211       -0.572573        2.606483  
C      -4.151258       -2.787399       -1.897465  
F      -3.961352        0.549817        3.172061  
F      -4.545969       -1.513784        3.599269  
F      -5.769956       -0.286215        2.266360  
F      -4.334229       -1.842027       -2.877163  
F      -3.403256       -3.776019       -2.455583  
F      -5.377654       -3.312624       -1.636678  
H       4.382296       -0.598997        1.705700  
N       4.319728        0.493705       -0.053939  
C       4.133009        0.539819       -1.588903  
C       5.249975        1.650170        0.420764  
H       4.335186        1.588877       -1.817246  
H       4.647080        2.522513        0.155640  
S       0.937921       -3.080018       -1.140943  
C       5.409193        1.641150        1.938804  
C       6.583674        1.777993       -0.316057  
C       2.686866        0.264877       -1.995696  
C       5.103829       -0.331013       -2.380607  
H       1.987383        0.805684       -1.357131  
H       2.565819        0.636622       -3.017828  
H       2.446497       -0.799495       -1.989241  
H       4.875234       -1.393489       -2.261763  
H       4.970947       -0.079322       -3.438145  
H       6.147652       -0.156984       -2.116072  
H       4.433863        1.570148        2.428177  
H       6.057827        0.829731        2.283160  
H       5.871851        2.590256        2.227567  
H       7.056080        2.693405        0.056076  
H       7.267967        0.948809       -0.129590  
H       6.449498        1.892824       -1.393843  
