90
mapping.R.ts3 optimized geometry
C      -4.822851        2.193049       -1.613954  
C      -3.974352        1.171984       -2.026571  
C      -2.583395        1.264099       -1.819247  
C      -2.030882        2.403322       -1.185049  
C      -2.901096        3.427588       -0.795113  
C      -4.279949        3.326783       -0.998253  
H      -2.187443       -0.651961       -2.758714  
H      -5.895228        2.111091       -1.766562  
H      -4.372901        0.283823       -2.509493  
C      -1.721084        0.191386       -2.256054  
C      -0.536541        2.506912       -0.901690  
H      -2.504759        4.317959       -0.317093  
H      -4.930265        4.134334       -0.672848  
C       0.281632        1.304318       -1.398448  
C      -0.378806        0.198795       -2.054331  
O       1.515215        1.308466       -1.242771  
H       3.085111        0.479170       -0.611705  
C      -0.374927        2.626118        0.683898  
C       1.009159        2.701840        1.207657  
H      -0.906818        1.798592        1.149992  
H      -0.919421        3.543580        0.943663  
H       1.695918        3.475280        0.893031  
N       1.508708        1.850926        2.094727  
O       2.723557        1.946808        2.516645  
O       0.784032        0.853320        2.585229  
C       0.050032        3.781793       -1.558285  
H       0.243174       -0.632135       -2.371957  
H      -0.096205        3.756606       -2.643726  
H      -0.447588        4.670143       -1.157423  
H       1.120262        3.844894       -1.345244  
C       0.844303       -1.698309        0.414408  
N      -0.239478       -1.011289        0.905262  
N       2.014060       -1.108019        0.806874  
H       1.927397       -0.433031        1.573225  
H       0.027347       -0.212605        1.528103  
C      -1.615038       -1.173995        0.771106  
C      -2.263661       -2.034720       -0.127619  
C      -2.405918       -0.332559        1.582950  
C      -3.659138       -2.028247       -0.209884  
H      -1.677308       -2.687169       -0.758999  
C      -3.789231       -0.321100        1.460029  
H      -1.919062        0.321217        2.299027  
C      -4.440416       -1.173383        0.563298  
H      -5.518090       -1.161052        0.468770  
C       3.330268       -1.714371        0.678188  
C       4.419660       -0.629499        0.524758  
C       3.642655       -2.564701        1.929901  
H       3.313634       -2.366874       -0.192970  
C       5.794856       -1.294354        0.397210  
C       5.038037       -3.196064        1.868757  
H       3.565749       -1.916517        2.813515  
H       2.863956       -3.330433        2.008223  
C       6.104689       -2.114786        1.659001  
H       6.569881       -0.546517        0.230179  
H       5.791243       -1.967714       -0.466185  
H       5.232749       -3.757593        2.789647  
H       5.078306       -3.909884        1.034334  
H       7.099406       -2.563367        1.560790  
H       6.128945       -1.446086        2.530495  
C      -4.597218        0.597984        2.345960  
C      -4.296391       -2.954014       -1.219276  
F      -3.942362        1.758746        2.624892  
F      -4.880900        0.012976        3.550446  
F      -5.791291        0.939522        1.790053  
F      -3.931996       -2.625906       -2.500336  
F      -3.912658       -4.249531       -1.036547  
F      -5.653551       -2.932060       -1.184333  
H       4.387209       -0.026958        1.438139  
N       4.117325        0.399933       -0.580899  
C       4.432670        0.058129       -2.051953  
C       4.532725        1.835983       -0.121838  
H       3.890301        0.845530       -2.577023  
H       3.830001        2.010199        0.698974  
S       0.797541       -3.086269       -0.559101  
C       5.944096        1.939844        0.455258  
C       4.290807        2.877494       -1.212315  
C       3.799683       -1.271230       -2.453740  
C       5.902596        0.144921       -2.452129  
H       2.764400       -1.350573       -2.109611  
H       3.804016       -1.322422       -3.547333  
H       4.367685       -2.125317       -2.075320  
H       6.506758       -0.650720       -2.014813  
H       5.938574        0.034652       -3.541562  
H       6.343254        1.110531       -2.203108  
H       6.086354        1.296064        1.326416  
H       6.727716        1.729945       -0.276118  
H       6.065657        2.974756        0.791945  
H       4.401660        3.860654       -0.743246  
H       5.022330        2.807129       -2.022955  
H       3.281677        2.803722       -1.620769  
