65
mapping.S.ts2 optimized geometry
C       4.758275       -2.588179       -0.154683  
C       3.901861       -2.311383       -1.216937  
C       3.256175       -1.064312       -1.312755  
C       3.463921       -0.078379       -0.317251  
C       4.327061       -0.373228        0.741140  
C       4.975303       -1.610680        0.821439  
H       2.236219       -1.581071       -3.162483  
H       5.253166       -3.552720       -0.086481  
H       3.721514       -3.055915       -1.988413  
C       2.397528       -0.778622       -2.444886  
C       2.639924        1.205776       -0.339440  
H       4.499727        0.358838        1.522872  
H       5.645667       -1.810199        1.653168  
C       2.083483        1.551278       -1.743463  
C       1.846007        0.440304       -2.661124  
O       1.770092        2.707214       -2.038568  
H      -0.659451        1.589244        0.310624  
C       1.367512        0.836969        0.517942  
C       0.329313        1.958722        0.656820  
H       0.893683       -0.039062        0.070863  
H       1.727010        0.538166        1.504891  
H       0.588391        2.861879        0.107530  
N       0.095675        2.390855        2.079977  
O      -0.000702        3.593610        2.314057  
O      -0.048523        1.512480        2.942194  
C       3.367104        2.411342        0.275122  
H       1.266433        0.651193       -3.555101  
H       3.554609        2.247414        1.340107  
H       4.323043        2.581282       -0.230767  
H       2.757936        3.311159        0.167166  
C      -0.949026       -1.578878        1.097975  
N       0.039780       -1.622594        2.033782  
N      -1.931258       -0.677685        1.364194  
H      -1.775427       -0.077192        2.161486  
H       0.047082       -0.895230        2.736174  
C       1.293061       -2.349804        1.866814  
C      -3.237454       -0.488585        0.706758  
C      -3.129075        0.046453       -0.740947  
C      -4.113375       -1.755371        0.793786  
H      -3.725497        0.286228        1.309137  
C      -4.535093        0.221568       -1.351597  
C      -5.492667       -1.542597        0.154824  
H      -3.596245       -2.571099        0.279773  
H      -4.210898       -2.033988        1.849851  
C      -5.345853       -1.079106       -1.300304  
H      -4.431935        0.578435       -2.383043  
H      -5.080370        0.993558       -0.792443  
H      -6.069263       -2.473936        0.211044  
H      -6.049530       -0.779354        0.718537  
H      -6.331412       -0.926435       -1.757510  
H      -4.830815       -1.857960       -1.880283  
H      -2.595621       -0.715845       -1.315501  
N      -2.297904        1.267480       -0.804066  
C      -2.948131        2.483144       -0.308370  
C      -1.733849        1.487918       -2.135869  
H      -2.194871        3.275274       -0.224725  
H      -3.751805        2.843930       -0.973070  
H      -3.371656        2.306221        0.685362  
H      -1.214960        0.580642       -2.461926  
H      -2.500338        1.750272       -2.888549  
H      -1.007220        2.307023       -2.089309  
H       1.899278       -2.162637        2.757198  
H       1.102084       -3.422891        1.772935  
H       1.840674       -2.015866        0.977560  
S      -0.887639       -2.585517       -0.277208  
