65
mapping.S.ts5 optimized geometry
C       4.757935       -2.589021       -0.154824  
C       3.902297       -2.311704       -1.217560  
C       3.256756       -1.064550       -1.313293  
C       3.463865       -0.079059       -0.317226  
C       4.326217       -0.374446        0.741659  
C       4.974319       -1.611975        0.821894  
H       2.238083       -1.580492       -3.163955  
H       5.252715       -3.553625       -0.086695  
H       3.722470       -3.055876       -1.989505  
C       2.398841       -0.778368       -2.445867  
C       2.640039        1.205215       -0.339449  
H       4.498349        0.357247        1.523856  
H       5.644037       -1.811906        1.654038  
C       2.084332        1.551215       -1.743663  
C       1.847420        0.440633       -2.661926  
O       1.771073        2.707263       -2.038480  
H      -0.659557        1.589566        0.311395  
C       1.367243        0.836523        0.517255  
C       0.329553        1.958689        0.656679  
H       0.892905       -0.039007        0.069649  
H       1.726154        0.536877        1.504147  
H       0.588543        2.861676        0.107083  
N       0.097163        2.391222        2.080125  
O       0.001396        3.594001        2.314014  
O      -0.046708        1.513031        2.942571  
C       3.367245        2.410513        0.275668  
H       1.268369        0.651923       -3.556148  
H       3.554358        2.246299        1.340678  
H       4.323392        2.580372       -0.229857  
H       2.758272        3.310463        0.167713  
C      -0.949863       -1.578514        1.098439  
N       0.038947       -1.621880        2.034224  
N      -1.932052       -0.677147        1.364284  
H      -1.775796       -0.075489        2.160618  
H       0.045792       -0.894869        2.736966  
C       1.292443       -2.348744        1.867393  
C      -3.238145       -0.488206        0.706594  
C      -3.129448        0.046562       -0.741159  
C      -4.114245       -1.754855        0.793826  
H      -3.726283        0.286723        1.308756  
C      -4.535323        0.221744       -1.352152  
C      -5.493380       -1.541881        0.154579  
H      -3.597253       -2.570850        0.280112  
H      -4.212002       -2.033121        1.849960  
C      -5.346240       -1.078832       -1.300659  
H      -4.431883        0.578385       -2.383649  
H      -5.080620        0.993920       -0.793270  
H      -6.070244       -2.473048        0.210954  
H      -6.050135       -0.778334        0.717985  
H      -6.331709       -0.926193       -1.758076  
H      -4.831206       -1.857927       -1.880317  
H      -2.595964       -0.715882       -1.315506  
N      -2.298116        1.267470       -0.804218  
C      -2.948306        2.483231       -0.308745  
C      -1.733679        1.487752       -2.135878  
H      -2.194983        3.275297       -0.224992  
H      -3.751802        2.844090       -0.973624  
H      -3.372032        2.306412        0.684931  
H      -1.214843        0.580383       -2.461791  
H      -2.499920        1.750144       -2.888812  
H      -1.006931        2.306750       -2.089193  
H       1.898899       -2.160642        2.757417  
H       1.101950       -3.422005        1.774392  
H       1.839593       -2.015155        0.977740  
S      -0.888604       -2.585978       -0.276140  
