73
F:55-60;
P      -2.265887        0.430729        1.186590  
C      -2.462577        2.154326        0.494492  
O      -3.870118        2.384904        0.290474  
H      -2.114176        2.904823        1.211490  
P      -0.102594        1.398895       -0.904482  
C      -1.720083        2.342860       -0.833163  
O      -1.417834        3.739265       -1.006908  
H      -2.373986        2.046708       -1.660470  
C       0.239729        1.195377       -2.686353  
C      -2.459565        0.603985        2.987728  
H       0.039550        2.120806       -3.232128  
H       1.293403        0.930200       -2.808586  
H      -0.375723        0.383918       -3.081778  
H      -3.317946        1.235847        3.227923  
H      -2.608725       -0.387418        3.421206  
H      -1.549825        1.034406        3.411752  
C       0.728367        2.927983       -0.456340  
C      -0.138457        4.015069       -0.607828  
C       0.281362        5.326194       -0.400773  
H      -0.409788        6.153062       -0.518473  
C       2.069587        3.151334       -0.115149  
C       2.509795        4.459739        0.110783  
H       3.536487        4.660347        0.393628  
C       1.610824        5.519234       -0.035965  
H       1.966043        6.530245        0.142036  
C      -3.894860        0.040326        0.547591  
C      -4.552207        1.207672        0.148717  
C      -5.854076        1.185652       -0.344501  
C      -4.547981       -1.196762        0.451947  
C      -5.850151       -1.243586       -0.054027  
H      -6.379013       -2.185185       -0.143955  
C      -6.478259       -0.054962       -0.437815  
H      -6.348117        2.102146       -0.646830  
H      -7.491535       -0.105411       -0.825796  
Rh      -0.413324       -0.610153        0.296952  
C       4.385549       -1.108192        1.476984  
C       3.026159       -1.263424        1.182864  
C       2.623091       -1.582310       -0.113080  
C       3.591825       -1.710610       -1.128214  
C       4.942847       -1.562489       -0.818199  
C       5.355017       -1.269315        0.488819  
O       4.671762       -0.769093        2.764010  
H       2.301331       -1.091490        1.972488  
H       3.271848       -1.949687       -2.136693  
O       5.949928       -1.684304       -1.725738  
H       6.414038       -1.151436        0.685562  
C       1.222172       -1.833254       -0.499830  
H       1.063346       -1.832420       -1.578649  
C       0.805321       -3.610131        1.336752  
H       1.437406       -4.404344        0.922949  
H       1.399918       -3.061655        2.063280  
H      -0.039223       -4.067214        1.856958  
N      -0.647785       -3.397381       -0.603754  
H      -0.658837       -4.407922       -0.562614  
C       0.338733       -2.724413        0.211702  
C      -1.495336       -2.764089       -1.439978  
O      -1.583130       -1.517708       -1.442291  
H       2.673314        2.293694       -0.065476  
H      -4.002247       -2.028875        0.787004  
H      -0.721065       -1.905585        1.225831  
H       0.410398       -0.065789        1.488794  
C      -2.320699       -3.598752       -2.361481  
H      -1.856295       -3.602645       -3.351620  
H      -2.413996       -4.633346       -2.027290  
H      -3.311203       -3.154037       -2.466379  
C       5.587326       -1.974850       -3.067847  
H       5.058945       -2.932498       -3.138831  
H       4.959072       -1.182722       -3.491515  
H       6.521193       -2.033695       -3.625057  
C       6.036095       -0.542885        3.088875  
H       6.638301       -1.445225        2.934284  
H       6.454668        0.277866        2.493661  
H       6.053276       -0.272205        4.143384  
