25
bp1
Si       0.000000      0.000000      0.000000
O       0.039000     -1.767861      0.038359
C      -0.688023     -2.602390      0.758649
C      -0.610224     -4.034013      0.377927
H      -0.737866     -2.410514      1.833121
C      -0.233425     -4.431733     -0.914795
C      -0.925843     -5.002611      1.343754
C      -0.165842     -5.788064     -1.230546
H       0.008158     -3.675811     -1.655551
C      -0.855817     -6.358822      1.023929
H      -1.219688     -4.688206      2.342540
C      -0.477649     -6.753672     -0.264379
H       0.130553     -6.095501     -2.229679
H      -1.093416     -7.105545      1.776450
H      -0.424415     -7.809676     -0.514889
C      -2.619502     -2.274624      0.306829
C      -2.625080     -0.937354      0.686746
H      -3.110741     -3.006742      0.940632
H      -2.556731     -2.519511     -0.750859
C      -2.077230      0.102125     -0.127273
H      -2.302510      1.108790      0.225390
Cl      -0.092409      0.199918      2.288872
Cl       0.210585     -0.094075     -2.283235
H      -2.861934     -0.705717      1.723164
H      -2.247875     -0.030582     -1.195673
