25
bp6
Si       0.000000      0.000000      0.000000
O      -1.759728      0.041866      0.179377
C      -2.685376     -0.571446     -0.534815
C      -4.062042     -0.544788      0.015877
H      -2.615228     -0.471208     -1.620129
C      -4.302713     -0.349727      1.385457
C      -5.140348     -0.720936     -0.865417
C      -5.612604     -0.322356      1.861953
H      -3.463399     -0.216213      2.060809
C      -6.449708     -0.691649     -0.384643
H      -4.947174     -0.873408     -1.924633
C      -6.687781     -0.494182      0.980210
H      -5.798722     -0.166653      2.921116
H      -7.281715     -0.820098     -1.071315
H      -7.707084     -0.472553      1.356113
C      -2.342063     -2.551092     -0.401614
C      -1.053656     -2.504937     -0.921173
H      -3.146733     -2.944932     -1.015094
H      -2.469833     -2.637569      0.674941
C       0.075313     -2.082418     -0.152647
H       1.037394     -2.266004     -0.630561
Cl       0.206239     -0.098971      2.279482
Cl      -0.082128      0.209913     -2.291962
H      -0.937199     -2.595561     -1.998953
H       0.047480     -2.400160      0.889484
