25
bp8
Si       0.000000      0.000000     -0.000000
O       0.232600     -0.004245      1.779187
C      -0.416322     -0.658900      2.711947
C       0.146040     -0.587109      4.078725
H      -1.505932     -0.674547      2.647877
C       1.472917     -0.184856      4.305256
C      -0.683469     -0.903899      5.166791
C       1.958157     -0.096803      5.609002
H       2.106126      0.064250      3.459762
C      -0.193701     -0.814227      6.469524
H      -1.710535     -1.212957      4.987136
C       1.128608     -0.412748      6.692842
H       2.983083      0.219170      5.783766
H      -0.840368     -1.053915      7.308826
H       1.510995     -0.343479      7.707537
C      -0.109026     -2.662310      2.344277
C      -0.647435     -2.606075      1.069262
H      -0.681931     -3.109048      3.150752
H       0.971338     -2.644469      2.467517
C       0.059516     -2.080067     -0.059595
H      -0.412965     -2.304403     -1.015041
Cl      -2.234822      0.141722      0.142501
Cl      -0.026570      0.145276     -2.252676
H      -1.716248     -2.781131      0.961488
H       1.130364     -2.289782     -0.054876
