82
mapping.S.ts1 optimized geometry
C      -3.778563        2.325419       -1.374780  
C      -3.642729        1.910775       -0.053096  
C      -2.442040        2.126542        0.647326  
C      -1.363644        2.795146        0.018603  
C      -1.518580        3.208332       -1.307428  
C      -2.708780        2.968472       -2.004010  
H      -3.166774        1.163311        2.453359  
H      -4.702769        2.140385       -1.913460  
H      -4.457888        1.397057        0.448076  
C      -2.296176        1.631281        2.001072  
C      -0.112188        3.131795        0.821516  
H      -0.713069        3.728600       -1.815713  
H      -2.797356        3.289548       -3.038351  
C       0.073117        2.254870        2.087949  
C      -1.128256        1.681691        2.686112  
O       1.181904        2.125548        2.608560  
H       2.306025        1.260190       -0.298128  
C       1.175579        3.145926       -0.027830  
C       1.444383        1.810095       -0.720795  
H       2.010956        3.402658        0.623976  
H       1.100081        3.943985       -0.768322  
H       0.583054        1.141999       -0.700465  
N       1.788729        1.939201       -2.195273  
O       1.640729        0.920547       -2.890848  
O       2.223036        2.994512       -2.633187  
C      -0.314908        4.572880        1.395327  
H      -1.027756        1.231794        3.669544  
H      -1.209755        4.617870        2.023796  
H       0.559756        4.856835        1.990765  
H      -0.430298        5.272439        0.560952  
C       1.180472       -1.791699       -0.418605  
N      -0.005044       -1.258413       -0.931473  
N       2.244087       -1.405477       -1.155378  
H       2.069810       -0.687923       -1.851916  
H       0.067627       -0.895366       -1.874702  
C      -1.331006       -1.371214       -0.492548  
C      -2.334458       -1.283865       -1.472240  
C      -1.701773       -1.498085        0.855122  
C      -3.677769       -1.346366       -1.111638  
H      -2.057154       -1.159445       -2.514037  
C      -3.052070       -1.592209        1.189297  
H      -0.945591       -1.512704        1.623826  
C      -4.053469       -1.527132        0.219715  
H      -5.099333       -1.586681        0.496681  
C       3.660035       -1.803461       -1.051709  
C       4.345424       -1.280402        0.234298  
C       3.840528       -3.319269       -1.272728  
H       4.134604       -1.290826       -1.896647  
C       5.809799       -1.775748        0.285247  
C       5.311255       -3.741431       -1.185506  
H       3.268994       -3.856731       -0.511709  
H       3.415641       -3.573874       -2.251007  
C       5.908610       -3.300269        0.156481  
H       6.270998       -1.431877        1.217499  
H       6.375354       -1.328545       -0.542371  
H       5.386214       -4.828536       -1.309840  
H       5.885233       -3.278150       -2.001627  
H       6.956666       -3.614642        0.235731  
H       5.357058       -3.780120        0.977338  
C      -3.463918       -1.791197        2.629956  
C      -4.756798       -1.262370       -2.165317  
F      -4.516268       -0.986761        2.972916  
F      -2.466940       -1.531573        3.512857  
F      -3.873096       -3.073995        2.858471  
F      -4.320626       -0.708123       -3.326945  
F      -5.250162       -2.498051       -2.478534  
F      -5.820586       -0.518489       -1.744562  
H       3.809221       -1.711785        1.085210  
S       1.239089       -2.804526        0.932609  
C       4.424347        0.698206        1.709894  
C       5.031260        1.019250       -0.526965  
C       4.527655        2.228606        1.534522  
H       5.364017        0.305013        2.135942  
H       3.598771        0.395637        2.362147  
C       4.807214        2.439702        0.018181  
H       4.733333        0.902979       -1.574848  
H       6.101608        0.763560       -0.447367  
H       3.594264        2.708104        1.836574  
H       5.332604        2.635525        2.153712  
H       3.950220        2.910103       -0.470818  
H       5.679105        3.075079       -0.163141  
N       4.195019        0.183176        0.349415  
