82
mapping.S.ts4 optimized geometry
C       2.044754        0.051486        3.071770  
C       2.734905        0.737780        2.078124  
C       2.116655        1.779973        1.362790  
C       0.785689        2.154593        1.661207  
C       0.110344        1.458190        2.667751  
C       0.725845        0.412980        3.363421  
H       3.863797        2.136478        0.124740  
H       2.522868       -0.763445        3.606238  
H       3.754754        0.462755        1.827029  
C       2.837349        2.450036        0.300588  
C       0.130960        3.332130        0.944221  
H      -0.910361        1.725535        2.921510  
H       0.171318       -0.119319        4.131296  
C       0.903726        3.836955       -0.304809  
C       2.284217        3.406294       -0.484842  
O       0.369482        4.633899       -1.079193  
H      -2.526971        1.289577       -0.049171  
C      -1.344876        3.045459        0.573145  
C      -1.551444        1.777373       -0.249222  
H      -1.920702        2.944505        1.495507  
H      -1.749158        3.908856        0.040576  
H      -0.767332        1.041746       -0.078990  
N      -1.599804        2.001623       -1.746453  
O      -1.106591        1.113189       -2.468295  
O      -2.184409        2.976374       -2.187163  
C       0.149249        4.544291        1.925849  
H       2.839088        3.857270       -1.302643  
H      -0.411857        4.284068        2.829398  
H       1.176158        4.797459        2.209889  
H      -0.315686        5.409734        1.441793  
C      -1.075619       -1.881773       -0.322800  
N       0.004838       -1.207023       -0.865544  
N      -2.250230       -1.462455       -0.853889  
H      -2.223339       -0.791954       -1.611948  
H      -0.249146       -0.495520       -1.549084  
C       1.390562       -1.302402       -0.696316  
C       2.162439       -0.477045       -1.539812  
C       2.048820       -2.126644        0.229549  
C       3.549652       -0.487906       -1.461919  
H       1.667591        0.172747       -2.253765  
C       3.443051       -2.124500        0.283180  
H       1.469567       -2.751087        0.893093  
C       4.212019       -1.314141       -0.550599  
H       5.294233       -1.322041       -0.493136  
C      -3.571272       -2.033509       -0.596597  
C      -4.651123       -0.931491       -0.656650  
C      -3.866824       -3.162778       -1.601565  
H      -3.551235       -2.454243        0.411798  
C      -6.036757       -1.575700       -0.412865  
C      -5.252459       -3.776751       -1.366873  
H      -3.815793       -2.745496       -2.617147  
H      -3.078736       -3.917985       -1.509886  
C      -6.334477       -2.690874       -1.424834  
H      -6.812416       -0.806081       -0.469153  
H      -6.062580       -1.995015        0.600897  
H      -5.444387       -4.557774       -2.112207  
H      -5.272717       -4.255843       -0.377734  
H      -7.323541       -3.120437       -1.224561  
H      -6.364229       -2.262788       -2.437397  
C       4.157437       -2.960940        1.320901  
C       4.383453        0.364792       -2.390351  
F       5.262628       -3.573737        0.809990  
F       3.376411       -3.930050        1.858997  
F       4.596927       -2.185225        2.362709  
F       3.654178        1.271710       -3.087422  
F       5.340648        1.063934       -1.708218  
F       5.048521       -0.399765       -3.305788  
H      -4.649858       -0.513995       -1.675271  
S      -0.993154       -3.074279        0.877123  
C      -5.221025        1.345790        0.154123  
C      -4.218505       -0.126876        1.676416  
C      -4.769220        2.243912        1.320227  
H      -6.277498        1.061791        0.294789  
H      -5.122502        1.820603       -0.828523  
C      -4.135150        1.259613        2.346791  
H      -3.336895       -0.748041        1.864593  
H      -5.107060       -0.668836        2.041699  
H      -4.032372        2.974349        0.976463  
H      -5.612382        2.796634        1.743535  
H      -3.092533        1.523612        2.545961  
H      -4.662377        1.264946        3.304676  
N      -4.322113        0.185899        0.242457  
