91
F:55-60;
P       0.211973       -1.213354       -1.066444  
C       1.625302       -0.684206       -2.194013  
O       2.318102       -1.886009       -2.589582  
H       1.242565       -0.220308       -3.109164  
P       2.193317        0.844156        0.191245  
C       2.625752        0.280822       -1.548431  
O       2.763824        1.455767       -2.369750  
H       3.600661       -0.224805       -1.533200  
C       3.643479        0.308023        1.259128  
C      -1.190882       -1.636953       -2.241442  
C       4.945904        0.913398        0.739543  
C       3.366919        0.800530        2.680110  
C       3.707535       -1.220152        1.227348  
C      -0.686060       -2.383176       -3.474721  
C      -2.158164       -2.528644       -1.463122  
C      -1.858443       -0.323027       -2.642984  
C       2.460448        2.552007       -0.290864  
C       2.746442        2.619961       -1.658224  
C       2.981257        3.839383       -2.289494  
H       3.206879        3.869986       -3.350238  
C       2.375012        3.726433        0.459712  
C       2.614946        4.951048       -0.155955  
H       2.563864        5.868101        0.422041  
C       2.916403        4.998561       -1.521385  
H       3.098509        5.957272       -1.998115  
C       1.081221       -2.763485       -0.775834  
C       2.128429       -2.901296       -1.694047  
C       2.941975       -4.030176       -1.704831  
C       0.852456       -3.761972        0.172054  
C       1.666743       -4.891611        0.182717  
H       1.503483       -5.671803        0.919215  
C       2.698895       -5.018283       -0.753193  
H       3.747015       -4.119291       -2.426833  
H       3.332559       -5.900176       -0.737094  
Rh       0.055172        0.224074        0.805397  
C      -5.323532       -0.058419       -0.235242  
C      -4.235767       -0.441686        0.557327  
C      -3.144588        0.424717        0.716678  
C      -3.158723        1.678133        0.087735  
C      -4.253918        2.046639       -0.697844  
C      -5.340705        1.186100       -0.861835  
O      -6.409917       -0.846512       -0.459229  
H      -4.217675       -1.410287        1.045765  
H      -2.288966        2.319899        0.151617  
O      -4.332487        3.226809       -1.371722  
H      -6.178349        1.473572       -1.487585  
C      -2.024519       -0.066209        1.538954  
H      -2.081385       -1.130751        1.768167  
C      -1.811929        2.058567        3.000248  
H      -1.065207        2.538378        3.636106  
H      -2.031481        2.722583        2.168116  
H      -2.736502        1.935547        3.576229  
N      -0.801977       -0.059145        3.640576  
H      -1.113355        0.196525        4.568640  
C      -1.343521        0.703372        2.540241  
C       0.046239       -1.096341        3.495874  
O       0.543941       -1.365942        2.381925  
H       2.122015        3.683137        1.516468  
H       0.052578       -3.643209        0.898662  
H       0.141160        1.359397        1.967716  
H      -0.370588        1.339690       -0.183313  
C       0.395566       -1.897473        4.704564  
H       0.050385       -2.923937        4.558826  
H       1.482356       -1.936005        4.806608  
H      -0.042942       -1.507342        5.622953  
C      -3.207645        4.091218       -1.302149  
H      -3.019458        4.421945       -0.273795  
H      -2.306302        3.603394       -1.694806  
H      -3.452900        4.953362       -1.920242  
C      -6.404172       -2.147209        0.112076  
H      -5.550168       -2.735017       -0.245058  
H      -6.381717       -2.102957        1.206920  
H      -7.330468       -2.619706       -0.211562  
H      -2.215921        0.230411       -1.769597  
H      -1.177642        0.328539       -3.203889  
H      -2.719434       -0.530285       -3.288629  
H      -3.055818       -2.706314       -2.066600  
H      -1.711187       -3.501783       -1.234053  
H      -2.479936       -2.063184       -0.526699  
H      -0.169077       -3.311355       -3.210692  
H      -1.545855       -2.650863       -4.099332  
H      -0.014175       -1.776667       -4.089130  
H       3.928901       -1.604454        0.224197  
H       4.516953       -1.557574        1.884223  
H       2.775944       -1.678484        1.573827  
H       2.430119        0.393983        3.073441  
H       4.180239        0.479556        3.339955  
H       3.315526        1.893605        2.730256  
H       4.931005        2.006902        0.770614  
H       5.773150        0.570522        1.370858  
H       5.174549        0.604451       -0.286053  
