91
F:55-60;
P       0.326866       -1.245762       -1.024975  
C       1.756638       -0.663389       -2.104484  
O       2.437173       -1.846937       -2.571954  
H       1.385117       -0.139058       -2.991557  
P       2.154657        0.970602        0.224562  
C       2.765315        0.246031       -1.391580  
O       3.150161        1.336088       -2.252290  
H       3.670791       -0.344322       -1.209720  
C       3.622283        0.848239        1.391032  
C      -1.058064       -1.606954       -2.243777  
C       4.841566        1.536148        0.777743  
C       3.226654        1.539681        2.695577  
C       3.909943       -0.633657        1.641542  
C      -0.538821       -2.285064       -3.509710  
C      -2.032367       -2.540549       -1.525071  
C      -1.730523       -0.278126       -2.584080  
C       2.187583        2.612749       -0.502495  
C       2.759398        2.554596       -1.778136  
C       2.928590        3.703497       -2.547742  
H       3.376202        3.638633       -3.534012  
C       1.740070        3.834392        0.004829  
C       1.901086        4.989819       -0.754312  
H       1.560375        5.945036       -0.368161  
C       2.496382        4.916471       -2.018805  
H       2.615855        5.820397       -2.609043  
C       1.189068       -2.811514       -0.809321  
C       2.236082       -2.908930       -1.733930  
C       3.027486       -4.050778       -1.815924  
C       0.933345       -3.868648        0.064811  
C       1.720323       -5.015377       -0.001573  
H       1.533262       -5.842556        0.675738  
C       2.755257       -5.098858       -0.938975  
H       3.833166       -4.108493       -2.540482  
H       3.368682       -5.994034       -0.982748  
Rh       0.102609        0.149731        0.877953  
C      -5.288668       -0.369841       -0.038536  
C      -4.162426       -0.731007        0.715894  
C      -3.098739        0.157657        0.865952  
C      -3.171629        1.425833        0.258450  
C      -4.287341        1.766052       -0.498950  
C      -5.362025        0.876924       -0.652140  
O      -6.262367       -1.314902       -0.123275  
H      -4.130725       -1.718158        1.168471  
H      -2.325912        2.098658        0.318303  
O      -4.413301        2.947454       -1.163693  
H      -6.206958        1.181752       -1.257587  
C      -1.937999       -0.299459        1.652050  
H      -1.933029       -1.370131        1.856884  
C      -1.820808        1.803116        3.156669  
H      -1.086045        2.313492        3.783197  
H      -2.105820        2.471887        2.348329  
H      -2.719002        1.609771        3.754962  
N      -0.652817       -0.250155        3.720394  
H      -0.949949       -0.030293        4.662164  
C      -1.281979        0.489587        2.652595  
C       0.276498       -1.209230        3.536074  
O       0.757809       -1.426118        2.404066  
H       1.269756        3.878521        0.985184  
H       0.127140       -3.789036        0.790083  
H       0.141301        1.278634        2.043887  
H      -0.439525        1.247123       -0.066256  
C       0.738160       -1.980630        4.726306  
H       0.525462       -3.040183        4.567438  
H       1.822527       -1.880554        4.814818  
H       0.268105       -1.661957        5.656642  
C      -3.312548        3.843763       -1.106525  
H      -3.121283        4.177768       -0.079671  
H      -2.400946        3.383157       -1.509719  
H      -3.589782        4.699690       -1.719667  
C      -7.421562       -0.987549       -0.877418  
H      -7.934884       -0.115840       -0.455981  
H      -7.170481       -0.788577       -1.925377  
H      -8.073903       -1.857390       -0.818975  
H      -2.130128        0.213452       -1.691552  
H      -1.041515        0.417771       -3.078107  
H      -2.564449       -0.457470       -3.272503  
H      -2.929088       -2.675980       -2.140468  
H      -1.591553       -3.528479       -1.355687  
H      -2.354893       -2.132123       -0.562671  
H      -0.008354       -3.217054       -3.289428  
H      -1.393116       -2.535866       -4.148680  
H       0.124572       -1.640038       -4.093210  
H       4.243753       -1.151497        0.735236  
H       4.720106       -0.720216        2.374004  
H       3.036355       -1.161973        2.035393  
H       2.373688        1.046832        3.175153  
H       4.070193        1.507011        3.393518  
H       2.970808        2.593441        2.537636  
H       4.670231        2.603923        0.609718  
H       5.689194        1.436763        1.464704  
H       5.141005        1.083535       -0.173691  
