91
F:47-60;
P       1.595487        1.372489        0.587347  
C       2.899118        0.973009       -0.707824  
O       3.210616        2.189138       -1.412955  
H       3.819898        0.657426       -0.203517  
P       1.194517       -1.282449       -1.097599  
C       2.525460       -0.120789       -1.712284  
O       3.692511       -0.920227       -1.995370  
H       2.225490        0.352663       -2.653682  
C       0.335259       -1.920695       -2.641254  
C       2.639307        1.802763        2.098524  
C       1.368537       -2.292492       -3.706707  
C      -0.471934       -3.156963       -2.248201  
C      -0.597833       -0.828000       -3.162333  
C       3.720366        2.827105        1.760722  
C       1.692815        2.380875        3.148811  
C       3.272530        0.503789        2.599506  
C       2.470277       -2.489640       -0.706487  
C       3.676338       -2.098979       -1.304886  
C       4.812586       -2.899303       -1.235876  
H       5.735099       -2.580240       -1.709801  
C       2.400227       -3.698384       -0.010390  
C       3.531061       -4.506612        0.068498  
H       3.489108       -5.446627        0.609287  
C       4.722613       -4.104966       -0.544557  
H       5.601134       -4.739930       -0.477849  
C       1.285034        2.937624       -0.253573  
C       2.259462        3.151379       -1.236760  
C       2.278144        4.312615       -2.004306  
C       0.293718        3.899908       -0.049163  
C       0.296155        5.064423       -0.813114  
H      -0.472821        5.814293       -0.658933  
C       1.286425        5.263644       -1.780049  
H       3.045055        4.455388       -2.758177  
H       1.281873        6.171727       -2.375588  
Rh      -0.103920       -0.310812        0.549623  
C      -5.663416       -0.905698        0.003106  
C      -4.496087       -1.121728        0.735804  
C      -3.359777       -0.334901        0.474219  
C      -3.398421        0.633366       -0.523259  
C      -4.578151        0.835986       -1.253017  
C      -5.715277        0.074524       -0.996551  
O      -6.812230       -1.609734        0.180955  
H      -4.450892       -1.883827        1.506017  
H      -2.525332        1.228985       -0.771627  
O      -4.513731        1.801448       -2.207036  
H      -6.637388        0.202340       -1.551250  
C      -2.184480       -0.599408        1.341944  
H      -2.238016       -1.569836        1.835560  
C      -1.925010        1.825055        2.205550  
H      -1.106074        2.467872        2.537966  
H      -2.299176        2.198043        1.253088  
H      -2.739490        1.924521        2.936497  
N      -0.934698       -0.091947        3.355227  
H      -1.325915        0.273706        4.215252  
C      -1.487751        0.394649        2.109684  
C      -0.034931       -1.089448        3.422888  
O       0.496941       -1.541424        2.381836  
H      -0.475000        3.742682        0.702668  
H       1.468803       -4.001273        0.461514  
H      -1.185062       -1.433424        0.147795  
H      -0.627510        0.544259       -0.626290  
C       0.344509       -1.611613        4.767904  
H       1.422454       -1.495085        4.905197  
H      -0.176959       -1.111310        5.583988  
H       0.129981       -2.681512        4.812833  
C      -5.683525        2.034283       -2.980247  
H      -5.975706        1.137343       -3.537947  
H      -6.518825        2.358167       -2.349231  
H      -5.427246        2.829236       -3.678901  
C      -6.811212       -2.625693        1.174550  
H      -6.067896       -3.399299        0.951271  
H      -6.614773       -2.208922        2.168815  
H      -7.807991       -3.063756        1.155036  
H       2.529527       -0.283960        2.757237  
H       4.025383        0.116835        1.903579  
H       3.781652        0.690891        3.551551  
H       0.919426        1.663052        3.439953  
H       2.260387        2.643053        4.048293  
H       1.203753        3.295746        2.793237  
H       3.295326        3.769073        1.400481  
H       4.293659        3.047829        2.668279  
H       4.429874        2.461271        1.012179  
H      -0.067642        0.106893       -3.380144  
H      -1.060090       -1.167107       -4.095502  
H      -1.400957       -0.606871       -2.450884  
H      -1.003722       -3.532642       -3.128690  
H       0.168974       -3.964948       -1.879130  
H      -1.221149       -2.928844       -1.481836  
H       2.056917       -3.069266       -3.358354  
H       0.845245       -2.684152       -4.585537  
H       1.960167       -1.432626       -4.035211  
