91
F:47-60;
P       1.507153        1.406326        0.497556  
C       2.771823        0.995251       -0.831823  
O       2.997288        2.182685       -1.613052  
H       3.726433        0.748834       -0.352519  
P       1.182333       -1.359468       -0.999883  
C       2.404994       -0.167451       -1.758985  
O       3.595812       -0.918402       -2.070479  
H       2.025554        0.237398       -2.703741  
C       0.281945       -2.150299       -2.449616  
C       2.601043        1.952047        1.934276  
C       1.266328       -2.473847       -3.574704  
C      -0.369999       -3.436533       -1.943936  
C      -0.788649       -1.176218       -2.941810  
C       3.617672        3.002183        1.490387  
C       1.680429        2.543329        3.000161  
C       3.314379        0.708952        2.469290  
C       2.550218       -2.457927       -0.603530  
C       3.695504       -2.042646       -1.298124  
C       4.883037       -2.765332       -1.233932  
H       5.756852       -2.431764       -1.783831  
C       2.595764       -3.606602        0.189113  
C       3.780207       -4.334075        0.267064  
H       3.828380       -5.226667        0.882185  
C       4.908214       -3.913319       -0.445286  
H       5.828524       -4.486404       -0.380046  
C       1.091852        2.912296       -0.406194  
C       2.013633        3.110963       -1.442607  
C       1.953869        4.229914       -2.268403  
C       0.070583        3.845410       -0.210068  
C      -0.006988        4.965769       -1.034264  
H      -0.799028        5.692778       -0.885743  
C       0.934862        5.152683       -2.051016  
H       2.684758        4.362679       -3.059114  
H       0.870460        6.028695       -2.689627  
Rh      -0.100491       -0.345443        0.630958  
C      -5.627189       -1.109997        0.117196  
C      -4.450136       -1.271876        0.865342  
C      -3.345747       -0.464392        0.608542  
C      -3.403016        0.495232       -0.414476  
C      -4.572749        0.638594       -1.154489  
C      -5.698159       -0.158348       -0.895026  
O      -6.649036       -1.939931        0.451861  
H      -4.423436       -2.029296        1.643074  
H      -2.529648        1.093687       -0.639541  
O      -4.713957        1.533214       -2.168984  
H      -6.585057       -0.016584       -1.501044  
C      -2.163520       -0.663184        1.482369  
H      -2.194986       -1.605381        2.029483  
C      -1.956677        1.808023        2.231062  
H      -1.153253        2.484619        2.533272  
H      -2.350462        2.140662        1.271384  
H      -2.767280        1.909778        2.966032  
N      -0.883835       -0.022650        3.438080  
H      -1.280133        0.357625        4.289423  
C      -1.476942        0.387572        2.183121  
C       0.075195       -0.960872        3.532010  
O       0.617764       -1.426253        2.502244  
H      -0.657761        3.699781        0.583722  
H       1.713181       -3.925569        0.737996  
H      -1.153867       -1.534067        0.343060  
H      -0.678091        0.413961       -0.586550  
C       0.506843       -1.399118        4.891068  
H       1.576058       -1.204031        5.006694  
H      -0.036704       -0.900544        5.693670  
H       0.366821       -2.478074        4.984127  
C      -3.602161        2.372024       -2.452880  
H      -3.339432        2.989893       -1.585193  
H      -2.725220        1.786333       -2.757046  
H      -3.912612        3.013961       -3.275666  
C      -7.856401       -1.815920       -0.288228  
H      -8.286515       -0.814108       -0.178322  
H      -7.692524       -2.026255       -1.351036  
H      -8.540674       -2.553608        0.127574  
H       2.612809       -0.079910        2.756701  
H       4.012453        0.282891        1.739570  
H       3.901679        0.982838        3.352625  
H       0.946201        1.812834        3.355504  
H       2.274941        2.864862        3.862187  
H       1.143711        3.423820        2.627269  
H       3.134114        3.903745        1.100371  
H       4.220774        3.298408        2.356025  
H       4.308833        2.627251        0.729042  
H      -0.371349       -0.199785       -3.218101  
H      -1.270171       -1.591708       -3.833598  
H      -1.565125       -1.010228       -2.186578  
H      -0.941173       -3.894440       -2.758470  
H       0.373801       -4.167716       -1.609876  
H      -1.066036       -3.246522       -1.118974  
H       2.068731       -3.138852       -3.239705  
H       0.728601       -2.984264       -4.380567  
H       1.720226       -1.575152       -4.003211  
