83
mapping.R.ts5 optimized geometry
C       5.183663       -0.920961       -0.593674  
C       4.323993       -1.352612       -1.597808  
C       3.082554       -1.936282       -1.279328  
C       2.698275       -2.097133        0.072593  
C       3.569414       -1.642879        1.067171  
C       4.799999       -1.063739        0.743423  
H       2.517172       -2.190044       -3.362595  
H       6.136410       -0.465127       -0.846080  
H       4.595361       -1.236509       -2.644163  
C       2.198041       -2.373863       -2.337928  
C       1.334144       -2.677482        0.440414  
H       3.289798       -1.734462        2.111643  
H       5.455973       -0.720403        1.538723  
C       0.598495       -3.344079       -0.747373  
C       1.027745       -3.016099       -2.101708  
O      -0.366409       -4.091842       -0.553709  
H      -1.906399       -1.462319        0.351214  
C       0.453987       -1.432547        0.848492  
C      -0.933848       -1.785236        1.362196  
H       0.408540       -0.754007       -0.009414  
H       1.007159       -0.902774        1.631508  
H      -1.151575       -2.842113        1.482756  
N      -1.392199       -1.083073        2.489736  
O      -2.303744       -1.571366        3.198642  
O      -0.949974        0.092429        2.721451  
C       1.449592       -3.673645        1.614236  
H       0.406260       -3.376849       -2.916724  
H       1.729299       -3.151396        2.533663  
H       0.495104       -4.177392        1.777465  
H       2.209968       -4.429949        1.392876  
C      -0.629179        1.833711       -0.447295  
N       0.455189        1.862423        0.364909  
N      -1.685441        1.155817        0.098725  
H      -1.601325        0.915076        1.085706  
H       0.352663        1.331529        1.222056  
C       1.806993        2.475380        0.194063  
C      -3.033907        1.114577       -0.443639  
C      -3.719885       -0.227297       -0.123427  
C      -3.889612        2.282662        0.083367  
H      -2.950269        1.218382       -1.528341  
C      -5.114158       -0.253902       -0.774459  
C      -5.294987        2.263222       -0.531344  
H      -3.956632        2.204665        1.177440  
H      -3.365883        3.213958       -0.156145  
C      -5.975157        0.914754       -0.267165  
H      -5.617325       -1.198260       -0.549821  
H      -5.003576       -0.183548       -1.864194  
H      -5.896625        3.083367       -0.122360  
H      -5.214332        2.424526       -1.615496  
H      -6.958930        0.875580       -0.748909  
H      -6.135549        0.794523        0.813403  
H      -3.837057       -0.317667        0.963823  
N      -2.860951       -1.409018       -0.501619  
C      -2.307003       -1.368830       -1.877190  
C      -3.535343       -2.708558       -0.243802  
H      -1.699188       -2.265031       -2.014725  
H      -3.118457       -1.362485       -2.613025  
H      -1.684971       -0.480401       -1.998055  
H      -3.970169       -2.684244        0.758328  
H      -4.312932       -2.896107       -0.989165  
H      -2.774038       -3.489128       -0.296685  
S      -0.714973        2.515460       -2.011488  
C       1.655311        4.005251       -0.045227  
C       2.523602        1.721713       -0.957770  
C       2.551404        2.181262        1.519513  
H       1.370890        4.156764       -1.089286  
H       0.806058        4.346681        0.557942  
H       2.642938        0.682793       -0.632219  
H       1.851236        1.715364       -1.819851  
H       3.569458        2.564831        1.410446  
H       2.640981        1.091768        1.616964  
C       2.869123        4.888161        0.292460  
C       1.916139        2.763343        2.791038  
C       3.884844        2.269024       -1.401076  
H       2.625880        5.931718        0.058558  
H       3.127812        4.838832        1.355387  
H       3.759018        4.616701       -0.279439  
H       4.336627        1.574390       -2.117612  
H       3.782349        3.241416       -1.893988  
H       4.580930        2.377858       -0.561720  
H       1.769889        3.844783        2.707388  
H       0.941507        2.311073        3.007136  
H       2.564905        2.571959        3.653563  
