23
bp9
Si          0.0000000          0.0000000         -0.0000000
O         -1.7380680          0.2015100          0.1855230
C         -2.5762390         -0.4888430          0.9542510
C         -3.9919970         -0.0303050          0.9267940
H         -2.4469860         -1.5747190          0.9283630
C         -4.3361820          1.2771170          0.5499230
C         -4.9968620         -0.9372190          1.2974080
C         -5.6754920          1.6664290          0.5378790
H         -3.5557930          1.9712780          0.2548400
C         -6.3354930         -0.5443600          1.2831980
H         -4.7277760         -1.9508270          1.5847190
C         -6.6771610          0.7592530          0.9057740
H         -5.9408770          2.6763560          0.2372700
H         -7.1102450         -1.2536280          1.5606730
H         -7.7194900          1.0659570          0.8935580
C         -2.1855340         -0.2729610          2.8362850
C         -0.8231280         -0.1655820          2.7094280
H         -2.5884570         -1.2085450          3.2234400
H         -2.7251670          0.6165730          3.1633520
C          0.2767820         -0.0469480          2.1021820
H          1.3031010          0.0113070          2.4332530
Cl         -0.1643770          0.1721510         -2.2002410
Cl          0.0452550         -2.2263550         -0.0179270
