81
F:47-60;
P      -0.495115        1.678673       -1.334329  
C      -2.051271        2.466965       -0.669306  
O      -1.792551        3.879296       -0.524988  
H      -2.873166        2.362614       -1.384526  
P      -2.013361        0.081135        0.940969  
C      -2.485738        1.884834        0.680627  
O      -3.918055        1.983932        0.799902  
H      -2.054538        2.495702        1.481538  
C      -1.824283       -0.044856        2.753466  
C      -0.612783        1.812634       -3.146065  
H      -2.629939        0.486499        3.265901  
H      -1.855056       -1.096248        3.047651  
H      -0.856703        0.370122        3.048927  
H      -0.957667        2.807770       -3.438279  
H       0.376803        1.633936       -3.572463  
H      -1.299513        1.053783       -3.527379  
C      -3.726287       -0.361207        0.633753  
C      -4.533445        0.779430        0.611463  
C      -5.915042        0.699237        0.451508  
H      -6.522882        1.596497        0.433909  
C      -4.312133       -1.629665        0.525014  
C      -5.695374       -1.734269        0.356882  
H      -6.173998       -2.701626        0.260298  
C      -6.469171       -0.570263        0.320476  
H      -7.543075       -0.664343        0.188602  
C       0.421171        3.109707       -0.775450  
C      -0.452642        4.133368       -0.403068  
C       0.013498        5.360472        0.061896  
C       1.807649        3.291971       -0.665612  
C       2.296729        4.509395       -0.182059  
H       3.362378        4.679469       -0.079833  
C       1.393720        5.519424        0.163203  
H      -0.677422        6.146550        0.344940  
H       1.786834        6.462113        0.532608  
Rh      -0.122946       -0.391529       -0.401642  
C       5.254685       -1.946511        0.034309  
C       3.974437       -2.184287       -0.484240  
C       2.864986       -1.570916        0.110136  
C       3.037454       -0.712269        1.198835  
C       4.322056       -0.471629        1.691858  
C       5.433462       -1.089135        1.118649  
O       6.389028       -2.502631       -0.468476  
H       3.829702       -2.835699       -1.339473  
H       2.178932       -0.209740        1.625616  
O       4.581072        0.376932        2.724366  
H       6.428866       -0.892192        1.501801  
C       1.537830       -1.899837       -0.471981  
H       1.610630       -2.325325       -1.472998  
C       0.462232       -2.740325        1.736521  
H      -0.546304       -2.822590        2.149244  
H       0.959506       -3.709427        1.882574  
H       1.013929       -2.002185        2.318417  
N      -0.458809       -3.284414       -0.458818  
H      -0.496591       -4.251354       -0.161390  
C       0.410035       -2.392638        0.278980  
C      -1.185334       -2.905623       -1.523088  
O      -1.206067       -1.709668       -1.897002  
O       2.567560        2.243105       -1.055256  
O      -3.459880       -2.682123        0.619329  
H       1.249543       -0.378113       -1.252408  
H       0.623795        0.441957        0.669929  
C      -1.981340       -3.939863       -2.247056  
H      -3.026707       -3.623033       -2.273511  
H      -1.637169       -4.001696       -3.281789  
H      -1.914538       -4.930269       -1.794918  
C       3.474641        1.051278        3.306045  
H       2.956557        1.680701        2.570268  
H       2.758561        0.343666        3.740998  
H       3.886847        1.680570        4.093489  
C       6.252756       -3.385503       -1.573322  
H       5.626424       -4.248063       -1.318705  
H       5.828454       -2.872476       -2.443759  
H       7.259766       -3.726166       -1.809501  
C      -4.040522       -3.981627        0.681813  
H      -4.755642       -4.052141        1.507686  
H      -4.540824       -4.240253       -0.258072  
H      -3.215458       -4.671121        0.858669  
C       3.978838        2.349516       -0.895713  
H       4.386950        3.151394       -1.519929  
H       4.245959        2.526189        0.152361  
H       4.384360        1.389520       -1.214313  
