81
F:47-60;
P       0.875103        1.716929        1.072034  
C       2.463747        2.150932        0.196746  
O       2.467172        3.570071       -0.043885  
H       3.327844        1.928000        0.832259  
P       1.985043       -0.352832       -1.072742  
C       2.611642        1.410174       -1.133463  
O       4.000749        1.349737       -1.490861  
H       2.095339        1.966499       -1.922828  
C       1.744656       -0.698930       -2.854038  
C       1.225529        1.875750        2.851777  
H       2.591549       -0.317605       -3.429905  
H       1.657866       -1.771648       -3.035877  
H       0.822832       -0.215695       -3.187412  
H       1.793032        2.787078        3.055570  
H       0.276118        1.912645        3.390816  
H       1.784486        1.000837        3.190664  
C       3.691397       -0.874096       -0.736756  
C       4.563288        0.190058       -1.029554  
C       5.940756        0.091838       -0.871257  
H       6.578067        0.937032       -1.106173  
C       4.240656       -2.073886       -0.263634  
C       5.619112       -2.183305       -0.080825  
H       6.020211       -3.118943        0.293755  
C       6.453155       -1.108255       -0.385787  
H       7.524644       -1.208272       -0.241337  
C       0.198829        3.286092        0.542121  
C       1.203074        4.090982       -0.002676  
C       0.941501        5.377663       -0.465351  
C      -1.113240        3.772869        0.640137  
C      -1.399824        5.058017        0.170866  
H      -2.404329        5.460559        0.226285  
C      -0.370009        5.834080       -0.368888  
H       1.732745        5.986984       -0.887168  
H      -0.606061        6.831875       -0.727528  
Rh       0.099806       -0.352797        0.385846  
C      -5.239569       -2.053155       -0.356438  
C      -3.961947       -2.297153        0.142997  
C      -3.025982       -1.246743        0.177605  
C      -3.370252        0.016409       -0.277987  
C      -4.663787        0.244613       -0.778808  
C      -5.601525       -0.780322       -0.822312  
O      -6.217313       -2.994367       -0.438573  
H      -3.676514       -3.279092        0.505699  
H      -2.662669        0.838446       -0.240081  
O      -4.908092        1.513932       -1.199012  
H      -6.605190       -0.635662       -1.204119  
C      -1.693049       -1.598782        0.751227  
H      -1.722072       -1.860653        1.810240  
C      -0.976839       -2.766395       -1.418096  
H      -0.048450       -2.899530       -1.979365  
H      -1.517234       -3.723067       -1.440599  
H      -1.590376       -2.030446       -1.941086  
N       0.112172       -3.239933        0.748210  
H       0.001374       -4.232352        0.579496  
C      -0.721103       -2.332217       -0.008037  
C       0.881065       -2.841003        1.780807  
O       1.048299       -1.621899        2.020596  
O      -2.008387        2.931919        1.209144  
O       3.467095       -3.159491        0.062239  
H      -1.201634        0.012601        1.262112  
H      -0.596538        0.403799       -0.776533  
C       1.517159       -3.887231        2.632340  
H       2.558261       -3.619511        2.814905  
H       1.007328       -3.918890        3.599147  
H       1.470371       -4.881811        2.186102  
C      -6.210204        1.797490       -1.691982  
H      -6.440156        1.194571       -2.577720  
H      -6.972489        1.619503       -0.924810  
H      -6.205613        2.852376       -1.962409  
C      -5.906074       -4.300922        0.024365  
H      -5.080895       -4.739042       -0.548894  
H      -5.645128       -4.294111        1.088695  
H      -6.806722       -4.894402       -0.125072  
C       2.791898       -3.758532       -1.039451  
H       1.945923       -3.145375       -1.375749  
H       3.477949       -3.925874       -1.877274  
H       2.404786       -4.715794       -0.688301  
C      -3.358773        3.379514        1.307306  
H      -3.430312        4.266731        1.944863  
H      -3.773450        3.593859        0.317277  
H      -3.911462        2.555776        1.757501  
