81
F:47-60;
P      -0.736774        1.436593       -1.468087  
C      -2.291955        2.120610       -0.710764  
O      -2.162067        3.554481       -0.668160  
H      -3.176834        1.891193       -1.312720  
P      -2.147866       -0.239200        0.882835  
C      -2.468175        1.591863        0.712814  
O      -3.805054        1.838348        1.152614  
H      -1.798008        2.142354        1.384102  
C      -1.836159       -0.394438        2.680949  
C      -0.957941        1.488320       -3.273424  
H      -2.579963        0.172511        3.246448  
H      -1.901598       -1.443064        2.981162  
H      -0.833186       -0.028055        2.915254  
H      -1.390396        2.443689       -3.580653  
H       0.019265        1.365339       -3.745951  
H      -1.603915        0.666308       -3.589007  
C      -3.955926       -0.512596        0.794855  
C      -4.595366        0.732073        1.007545  
C      -5.968854        0.878360        1.129002  
H      -6.397406        1.862253        1.281425  
C      -4.783411       -1.652085        0.739395  
C      -6.173798       -1.518235        0.863694  
H      -6.776921       -2.417755        0.805111  
C      -6.751050       -0.272267        1.054058  
H      -7.830305       -0.192806        1.141311  
C       0.093259        2.953831       -1.002981  
C      -0.842814        3.920794       -0.625312  
C      -0.459831        5.197174       -0.224369  
C       1.463446        3.250262       -0.956842  
C       1.870501        4.521758       -0.539967  
H       2.921857        4.779750       -0.489708  
C       0.905125        5.470593       -0.192369  
H      -1.200928        5.933536        0.065211  
H       1.236173        6.455061        0.125685  
Rh      -0.164878       -0.573441       -0.484205  
C       5.345502       -1.424931        0.315282  
C       4.137932       -1.830441       -0.253639  
C       2.930783       -1.294156        0.230830  
C       2.948117       -0.364061        1.262624  
C       4.169913        0.041679        1.816511  
C       5.373023       -0.481050        1.350687  
O       6.562436       -1.883005       -0.080641  
H       4.115107       -2.548548       -1.066016  
H       2.034151        0.093834        1.627580  
O       4.080369        0.975901        2.799495  
H       6.332957       -0.178280        1.752089  
C       1.696483       -1.803235       -0.421433  
H       1.885971       -2.194000       -1.421544  
C       0.646908       -2.792092        1.721923  
H      -0.354292       -3.014922        2.100497  
H       1.272278       -3.674853        1.912582  
H       1.059395       -1.967018        2.302526  
N      -0.033943       -3.493483       -0.530165  
H       0.089439       -4.458132       -0.244997  
C       0.623211       -2.474678        0.258894  
C      -0.599155       -3.237810       -1.725584  
O      -0.786421       -2.056484       -2.103097  
O       2.295859        2.251480       -1.332403  
O      -4.373832       -2.937715        0.596129  
H       1.230316       -0.311852       -1.226412  
H       0.367096        0.344564        0.642684  
C      -1.020954       -4.392597       -2.570888  
H      -2.032371       -4.220213       -2.943542  
H      -0.362106       -4.456994       -3.440731  
H      -0.984539       -5.344840       -2.039553  
C       5.297300        1.454836        3.356093  
H       5.860703        0.647278        3.836709  
H       5.922789        1.929325        2.590878  
H       5.014227        2.194146        4.103662  
C       6.590466       -2.847413       -1.124033  
H       6.044334       -3.754183       -0.840668  
H       6.168045       -2.443475       -2.051209  
H       7.640648       -3.089446       -1.279635  
C      -3.026236       -3.197917        0.261013  
H      -2.728664       -2.627817       -0.625168  
H      -2.345535       -2.963835        1.091621  
H      -2.965446       -4.267830        0.057990  
C       3.694268        2.460194       -1.158751  
H       4.060613        3.253285       -1.819064  
H       3.926385        2.709099       -0.116911  
H       4.169401        1.514615       -1.418271  
