81
F:47-60;
P      -0.589021        1.691219       -1.309348  
C      -2.150126        2.450368       -0.623662  
O      -1.919397        3.869120       -0.494695  
H      -2.982790        2.322763       -1.322372  
P      -2.053463        0.068057        0.984510  
C      -2.541926        1.868836        0.738550  
O      -3.970843        1.960718        0.897920  
H      -2.090778        2.482180        1.526242  
C      -1.835593       -0.064966        2.792867  
C      -0.732031        1.827914       -3.119327  
H      -2.637753        0.459108        3.318105  
H      -1.856372       -1.118133        3.081522  
H      -0.866894        0.354133        3.076708  
H      -1.096811        2.818298       -3.403501  
H       0.254909        1.667028       -3.558836  
H      -1.411135        1.059476       -3.494977  
C      -3.771043       -0.382109        0.710204  
C      -4.584283        0.754290        0.714975  
C      -5.968784        0.668331        0.586471  
H      -6.581150        1.562669        0.588366  
C      -4.353075       -1.652832        0.607846  
C      -5.739589       -1.763365        0.471978  
H      -6.215712       -2.732495        0.380925  
C      -6.519686       -0.603098        0.460374  
H      -7.595873       -0.701789        0.352901  
C       0.305810        3.139850       -0.761322  
C      -0.583347        4.148655       -0.384640  
C      -0.136003        5.384551        0.074859  
C       1.689169        3.346032       -0.659858  
C       2.159823        4.572094       -0.180027  
H       3.222840        4.759352       -0.081086  
C       1.241775        5.567299        0.168052  
H      -0.838954        6.158357        0.362094  
H       1.620967        6.516742        0.534741  
Rh      -0.179296       -0.380923       -0.390348  
C       5.215033       -1.900558       -0.114149  
C       3.925436       -2.132646       -0.593468  
C       2.827578       -1.540956        0.056694  
C       3.035213       -0.719713        1.159255  
C       4.336485       -0.491480        1.625619  
C       5.432650       -1.077365        0.998504  
O       6.338111       -2.426491       -0.671565  
H       3.754968       -2.760042       -1.461431  
H       2.212493       -0.212181        1.652047  
O       4.433276        0.342588        2.695240  
H       6.450884       -0.911657        1.330171  
C       1.489360       -1.867104       -0.502163  
H       1.547619       -2.281021       -1.509116  
C       0.458630       -2.745836        1.713285  
H      -0.541805       -2.848072        2.141313  
H       0.972697       -3.709057        1.839072  
H       1.008565       -2.005911        2.293979  
N      -0.490387       -3.274024       -0.474831  
H      -0.519259       -4.243470       -0.184382  
C       0.378260       -2.381020        0.261417  
C      -1.220164       -2.894569       -1.537006  
O      -1.262494       -1.693924       -1.893796  
O       2.464962        2.309708       -1.052846  
O      -3.493027       -2.700573        0.675431  
H       1.181654       -0.344254       -1.256869  
H       0.580201        0.438880        0.681593  
C      -1.979571       -3.937933       -2.286993  
H      -3.009390       -3.601578       -2.424319  
H      -1.542472       -4.054094       -3.281771  
H      -1.975160       -4.910079       -1.792066  
C       5.737850        0.640216        3.173684  
H       6.254143       -0.264700        3.513220  
H       6.340018        1.133062        2.401331  
H       5.601345        1.317634        4.015271  
C       6.173028       -3.264913       -1.806992  
H       5.568539       -4.146486       -1.565127  
H       5.707727       -2.722380       -2.637752  
H       7.174916       -3.579688       -2.094769  
C      -4.062633       -4.004837        0.733665  
H      -4.752758       -4.094329        1.578888  
H      -4.587858       -4.253104       -0.195069  
H      -3.227772       -4.690540        0.876096  
C       3.871549        2.425883       -0.862663  
H       4.285191        3.246498       -1.458260  
H       4.112805        2.577431        0.196033  
H       4.293011        1.478721       -1.198544  
