81
F:55-60;
P      -2.329310        0.296391        1.213665  
C      -2.553546        2.032794        0.579066  
O      -3.965032        2.242628        0.420983  
H      -2.197271        2.762363        1.313285  
P      -0.205137        1.374554       -0.879756  
C      -1.844197        2.270834       -0.759487  
O      -1.584486        3.678485       -0.903067  
H      -2.506465        1.976291       -1.580863  
C       0.112719        1.221467       -2.670918  
C      -2.562122        0.458079        3.013504  
H      -0.123694        2.151846       -3.193326  
H       1.170900        0.989374       -2.817849  
H      -0.486614        0.401264       -3.073176  
H      -3.467216        1.028620        3.235245  
H      -2.637462       -0.529048        3.472544  
H      -1.691669        0.966708        3.434395  
C       0.590432        2.913765       -0.399420  
C      -0.309727        3.979158       -0.507490  
C       0.071170        5.294914       -0.259915  
H      -0.646270        6.103085       -0.344909  
C       1.927267        3.167339       -0.061326  
C       2.328301        4.480559        0.206581  
H       3.350126        4.702932        0.490431  
C       1.396724        5.516583        0.102223  
H       1.721895        6.531320        0.313212  
C      -3.940892       -0.128178        0.506219  
C      -4.603446        1.061555        0.148585  
C      -5.850666        1.071970       -0.462759  
C      -4.563374       -1.352698        0.208417  
C      -5.804891       -1.356041       -0.432085  
H      -6.264411       -2.312586       -0.658340  
C      -6.436460       -0.157352       -0.753433  
H      -6.325787        2.012475       -0.718764  
H      -7.404993       -0.182399       -1.244048  
Rh      -0.446433       -0.669652        0.292452  
C       4.391049       -1.085231        1.272309  
C       3.032100       -1.277786        1.029490  
C       2.585294       -1.559243       -0.267009  
C       3.513666       -1.608370       -1.314206  
C       4.874362       -1.422858       -1.058063  
C       5.333598       -1.170915        0.238850  
O       4.722484       -0.784677        2.558915  
H       2.334203       -1.158345        1.852394  
H       3.194026       -1.813359       -2.331995  
O       5.694479       -1.505361       -2.140590  
H       6.386766       -1.019882        0.435718  
C       1.177754       -1.837752       -0.607657  
H       0.973031       -1.798466       -1.677794  
C       0.873635       -3.680638        1.186423  
H       1.465216       -4.474428        0.715787  
H       1.524791       -3.152697        1.878593  
H       0.060047       -4.139139        1.753503  
N      -0.676675       -3.430197       -0.666576  
H      -0.689281       -4.441118       -0.632550  
C       0.346679       -2.770378        0.109574  
C      -1.571440       -2.791528       -1.450652  
O      -1.665973       -1.545732       -1.426767  
O       2.739855        2.087635       -0.040059  
O      -4.012513       -2.577953        0.457981  
H      -0.651925       -1.967521        1.232823  
H       0.400428       -0.130162        1.471419  
C      -2.442790       -3.615054       -2.336778  
H      -2.124553       -3.481772       -3.374156  
H      -2.408185       -4.678603       -2.098650  
H      -3.470077       -3.256467       -2.255347  
C       7.084204       -1.301657       -1.928926  
H       7.282954       -0.299665       -1.531010  
H       7.497756       -2.052033       -1.245510  
H       7.554388       -1.403438       -2.905891  
C       6.087171       -0.509242        2.839329  
H       6.721985       -1.378779        2.635093  
H       6.446568        0.348178        2.257338  
H       6.132907       -0.270859        3.900899  
C      -3.519002       -2.823932        1.772628  
H      -2.551567       -2.338775        1.945364  
H      -4.242268       -2.499879        2.528946  
H      -3.375953       -3.902842        1.844218  
C       4.117957        2.310868        0.243116  
H       4.551573        3.030448       -0.459434  
H       4.254767        2.669836        1.269694  
H       4.604555        1.342683        0.123494  
