81
F:55-60;
P      -2.284390        0.300905        1.168086  
C      -2.510037        2.032451        0.521008  
O      -3.921066        2.236767        0.353574  
H      -2.160130        2.767373        1.253046  
P      -0.149670        1.374421       -0.914659  
C      -1.792744        2.265677       -0.814462  
O      -1.535867        3.673306       -0.963727  
H      -2.448106        1.964944       -1.639042  
C       0.194265        1.215986       -2.700141  
C      -2.525944        0.473968        2.965858  
H      -0.034194        2.144647       -3.228954  
H       1.254750        0.983498       -2.829330  
H      -0.398143        0.394132       -3.109071  
H      -3.434799        1.041602        3.179615  
H      -2.598691       -0.510303        3.431489  
H      -1.660183        0.990077        3.387308  
C       0.634515        2.917506       -0.428993  
C      -0.266481        3.980085       -0.555596  
C       0.109626        5.298402       -0.314404  
H      -0.607972        6.104738       -0.414111  
C       1.966649        3.175706       -0.076186  
C       2.363437        4.491904        0.182921  
H       3.382312        4.718179        0.474436  
C       1.431199        5.525363        0.059121  
H       1.752664        6.542584        0.263675  
C      -3.891048       -0.133518        0.456682  
C      -4.555264        1.051859        0.087835  
C      -5.800532        1.054462       -0.527470  
C      -4.509424       -1.361972        0.166407  
C      -5.748858       -1.373251       -0.477925  
H      -6.205589       -2.332559       -0.697925  
C      -6.382334       -0.178556       -0.810380  
H      -6.277252        1.991723       -0.792187  
H      -7.349323       -0.209870       -1.303631  
Rh      -0.391648       -0.662997        0.265598  
C       4.414783       -1.025976        1.297804  
C       3.062672       -1.215024        1.034597  
C       2.649676       -1.556652       -0.266299  
C       3.599427       -1.670705       -1.281006  
C       4.961762       -1.490408       -0.997311  
C       5.382044       -1.178246        0.291827  
O       4.904267       -0.649743        2.511774  
H       2.317512       -1.058936        1.805298  
H       3.303916       -1.923101       -2.295382  
O       5.805137       -1.638905       -2.053558  
H       6.423135       -1.013245        0.543312  
C       1.244204       -1.833497       -0.619231  
H       1.048040       -1.804890       -1.691365  
C       0.939584       -3.659979        1.188279  
H       1.535657       -4.456085        0.727326  
H       1.588702       -3.121352        1.874845  
H       0.127277       -4.115833        1.759295  
N      -0.605923       -3.432529       -0.673489  
H      -0.614199       -4.443279       -0.633353  
C       0.411773       -2.762655        0.101078  
C      -1.497314       -2.802141       -1.467837  
O      -1.594355       -1.556296       -1.453543  
O       2.778177        2.096010       -0.030905  
O      -3.955987       -2.583679        0.427606  
H      -0.599181       -1.956142        1.212617  
H       0.440106       -0.105868        1.448598  
C      -2.362132       -3.633832       -2.352540  
H      -2.331193       -4.694693       -2.102285  
H      -3.389524       -3.272916       -2.284041  
H      -2.034379       -3.512728       -3.388464  
C       7.191306       -1.444557       -1.809689  
H       7.391650       -0.427866       -1.452217  
H       7.570580       -2.166252       -1.077401  
H       7.689650       -1.599263       -2.765539  
C       3.957157       -0.376437        3.534149  
H       3.267996        0.422895        3.232280  
H       3.378509       -1.270859        3.794304  
H       4.533468       -0.053939        4.399948  
C      -3.467071       -2.818232        1.746073  
H      -2.500324       -2.331206        1.918055  
H      -4.193198       -2.488171        2.497025  
H      -3.323798       -3.896428        1.827297  
C       4.155927        2.321598        0.254715  
H       4.596326        3.019604       -0.465048  
H       4.288200        2.708658        1.271493  
H       4.638840        1.348151        0.166116  
