81
F:47-60;
P      -0.692091        1.551581       -1.264594  
C      -2.172941        2.348756       -0.463307  
O      -1.894899        3.756225       -0.330262  
H      -3.058977        2.254860       -1.099150  
P      -2.151499       -0.090874        1.031221  
C      -2.469125        1.752165        0.915430  
O      -3.852082        1.958352        1.232927  
H      -1.878092        2.279122        1.672090  
C      -1.952416       -0.310422        2.836634  
C      -0.949209        1.681233       -3.061578  
H      -2.752837        0.199982        3.377479  
H      -1.967837       -1.369912        3.099446  
H      -0.983852        0.101116        3.133126  
H      -1.292193        2.683703       -3.329384  
H       0.000018        1.478022       -3.562503  
H      -1.680939        0.937763       -3.384957  
C      -3.923386       -0.355057        0.715326  
C      -4.599039        0.872806        0.859774  
C      -5.963730        1.012662        0.643501  
H      -6.438398        1.979695        0.765653  
C      -4.677136       -1.479399        0.339802  
C      -6.046003       -1.349969        0.093710  
H      -6.602211       -2.233148       -0.201252  
C      -6.674584       -0.117697        0.247570  
H      -7.740884       -0.037454        0.058560  
C       0.282998        2.970035       -0.778475  
C      -0.547145        3.999311       -0.327160  
C      -0.033950        5.220234        0.101783  
C       1.675002        3.141077       -0.784563  
C       2.212109        4.353433       -0.340677  
H       3.283647        4.515651       -0.327947  
C       1.350479        5.368947        0.083874  
H      -0.692544        6.008671        0.447867  
H       1.781152        6.307015        0.422061  
Rh      -0.265375       -0.528872       -0.373809  
C       5.190766       -1.700789       -0.323389  
C       3.894070       -2.013295       -0.742118  
C       2.792571       -1.552388       -0.014531  
C       2.996293       -0.767703        1.122587  
C       4.294512       -0.451949        1.524696  
C       5.407829       -0.913933        0.811586  
O       6.192604       -2.198725       -1.095130  
H       3.762648       -2.613729       -1.637271  
H       2.165133       -0.350000        1.681240  
O       4.388007        0.340438        2.626178  
H       6.411762       -0.658782        1.124245  
C       1.459187       -1.953341       -0.529354  
H       1.504360       -2.329619       -1.551217  
C       0.533922       -2.913424        1.689356  
H      -0.441709       -3.034314        2.167733  
H       1.063068       -3.871871        1.781948  
H       1.098630       -2.173258        2.254726  
N      -0.445847       -3.448466       -0.492466  
H      -0.409874       -4.427351       -0.234836  
C       0.397655       -2.531631        0.245533  
C      -1.212238       -3.083670       -1.537287  
O      -1.322157       -1.879383       -1.865794  
O       2.394877        2.087990       -1.235761  
O      -4.151310       -2.728076        0.163085  
H       1.061266       -0.387436       -1.267598  
H       0.483773        0.298343        0.701460  
C      -1.947727       -4.150898       -2.276930  
H      -3.010480       -3.900860       -2.296105  
H      -1.599965       -4.177994       -3.312138  
H      -1.818227       -5.140401       -1.836770  
C       5.685389        0.740606        3.044641  
H       6.301939       -0.122610        3.319487  
H       6.193370        1.318321        2.263450  
H       5.535526        1.370155        3.920404  
C       7.527844       -1.886524       -0.722299  
H       7.706279       -0.805578       -0.752416  
H       7.760477       -2.266592        0.278879  
H       8.165916       -2.379450       -1.454094  
C      -3.278702       -3.195378        1.183528  
H      -2.303692       -2.695342        1.143598  
H      -3.727743       -3.062380        2.174387  
H      -3.121760       -4.258086        0.992923  
C       3.813044        2.166121       -1.126844  
H       4.216063        2.951670       -1.774802  
H       4.116395        2.351670       -0.089768  
H       4.189101        1.194210       -1.446165  
