81
F:47-60;
P       0.861293        1.686305        1.025589  
C       2.248890        2.278112       -0.075822  
O       1.996289        3.652163       -0.426325  
H       3.198896        2.252368        0.469751  
P       2.038466       -0.374596       -1.089635  
C       2.386647        1.445611       -1.351143  
O       3.733863        1.542606       -1.834197  
H       1.728282        1.849462       -2.127138  
C       1.751500       -0.934291       -2.808261  
C       1.448722        1.898134        2.735838  
H       2.494243       -0.494266       -3.478086  
H       1.823660       -2.021588       -2.873761  
H       0.747735       -0.633888       -3.118403  
H       1.884517        2.889562        2.879510  
H       0.602150        1.770720        3.414025  
H       2.188584        1.125971        2.958674  
C       3.826324       -0.608683       -0.843014  
C       4.500632        0.541017       -1.299073  
C       5.880031        0.683594       -1.224783  
H       6.354327        1.589464       -1.585729  
C       4.593832       -1.650316       -0.298212  
C       5.979886       -1.511688       -0.193264  
H       6.547825       -2.327736        0.240579  
C       6.607786       -0.357639       -0.653757  
H       7.686652       -0.269477       -0.569816  
C      -0.072131        3.145764        0.590428  
C       0.706699        4.020822       -0.170162  
C       0.204489        5.233798       -0.635315  
C      -1.395138        3.485604        0.911073  
C      -1.924015        4.691229        0.442218  
H      -2.944862        4.975827        0.668672  
C      -1.115353        5.541403       -0.318240  
H       0.824587        5.899646       -1.224375  
H      -1.535625        6.477924       -0.673131  
Rh       0.208446       -0.456246        0.454551  
C      -5.037039       -2.252817       -0.466772  
C      -3.768394       -2.478931        0.072308  
C      -2.873478       -1.413665        0.213640  
C      -3.249245       -0.131876       -0.180411  
C      -4.523083        0.082046       -0.718213  
C      -5.429867       -0.970564       -0.869628  
O      -5.836880       -3.347455       -0.567908  
H      -3.498201       -3.486486        0.375551  
H      -2.576300        0.710941       -0.066778  
O      -4.796897        1.367418       -1.069055  
H      -6.412501       -0.799512       -1.288925  
C      -1.559695       -1.739476        0.847918  
H      -1.622370       -1.951966        1.916401  
C      -0.739748       -3.001303       -1.236365  
H       0.218951       -3.187976       -1.728445  
H      -1.298154       -3.947287       -1.234103  
H      -1.305873       -2.289225       -1.839634  
N       0.279932       -3.329400        0.986690  
H       0.196715       -4.332505        0.874074  
C      -0.551834       -2.486886        0.157355  
C       1.054370       -2.851224        1.979554  
O       1.212343       -1.617591        2.134165  
O      -2.055409        2.593704        1.685984  
O       4.061130       -2.814919        0.181035  
H      -1.085736       -0.109145        1.343990  
H      -0.546509        0.210177       -0.725982  
C       1.730561       -3.831623        2.878419  
H       2.782703       -3.560512        2.979755  
H       1.280705       -3.775328        3.872947  
H       1.652093       -4.859395        2.520703  
C      -6.080747        1.642702       -1.611788  
H      -6.246546        1.088452       -2.542663  
H      -6.875355        1.399541       -0.897189  
H      -6.094986        2.711612       -1.819749  
C      -7.134219       -3.168765       -1.119769  
H      -7.733763       -2.480018       -0.513935  
H      -7.081428       -2.797317       -2.149445  
H      -7.599180       -4.153437       -1.114133  
C       3.177940       -3.505926       -0.693578  
H       2.210955       -2.996114       -0.786888  
H       3.627284       -3.630965       -1.685434  
H       3.002373       -4.484522       -0.244535  
C      -3.419892        2.874463        1.990608  
H      -3.508154        3.797458        2.572785  
H      -4.016430        2.950889        1.075444  
H      -3.769381        2.030738        2.584160  
