87
mapping.S.ts1 optimized geometry
C       3.610637        4.720017       -1.363762  
C       3.166222        3.404860       -1.381612  
C       1.819150        3.094901       -1.093491  
C       0.903488        4.143749       -0.772083  
C       1.377215        5.475482       -0.771034  
C       2.705774        5.758850       -1.061497  
H       2.014100        0.961786       -1.436350  
H       4.649318        4.950015       -1.585221  
H       3.850813        2.594774       -1.619328  
C       1.318679        1.751015       -1.158901  
C      -0.444537        3.808779       -0.400810  
H       0.685024        6.281150       -0.534662  
H       3.050930        6.789956       -1.055303  
C      -0.961553        2.467688       -0.573286  
C       0.005933        1.446604       -0.927870  
O      -2.193587        2.198650       -0.415467  
H      -3.069310        0.611462       -0.553553  
C      -0.240572        3.894761        1.845561  
C       0.618269        2.946956        2.366780  
H      -1.309332        3.762079        1.966851  
H       0.139682        4.902338        1.727047  
H       1.693738        3.054432        2.402802  
N       0.163042        1.709999        2.780709  
O       1.012242        0.829760        3.137060  
O      -1.077381        1.443485        2.795994  
H      -1.177684        4.610021       -0.349025  
H      -0.350933        0.428180       -1.043001  
C      -0.795361       -1.523441        0.583683  
N       0.436895       -1.248657        1.131993  
N      -1.786630       -0.743180        1.097433  
H      -1.491026        0.004324        1.735013  
H       0.465015       -0.558268        1.889164  
C       1.724528       -1.563909        0.653478  
C       2.710099       -0.568620        0.782400  
C       2.076144       -2.811799        0.127683  
C       4.011565       -0.815615        0.359501  
H       2.441935        0.386517        1.215925  
C       3.387720       -3.033576       -0.308608  
H       1.341624       -3.602188        0.071746  
C       4.363209       -2.045277       -0.209063  
H       5.375788       -2.226280       -0.548689  
C      -3.202331       -1.112425        1.295310  
C      -4.022191       -1.204162       -0.011374  
C      -3.300679       -2.424333        2.104725  
H      -3.607626       -0.303636        1.906765  
C      -5.455859       -1.689655        0.233407  
C      -4.745448       -2.873873        2.333764  
H      -2.762928       -3.205349        1.556471  
H      -2.779005       -2.263163        3.054332  
C      -5.458398       -3.027729        0.987099  
H      -5.969098       -1.794373       -0.724484  
H      -6.015799       -0.963911        0.827819  
H      -4.751761       -3.819897        2.887358  
H      -5.278467       -2.132023        2.945459  
H      -6.494560       -3.355915        1.125942  
H      -4.946543       -3.792617        0.387216  
C       3.710588       -4.382367       -0.909295  
C       5.075893        0.250537        0.465462  
F       3.103850       -4.546319       -2.123776  
F       3.274356       -5.407727       -0.121422  
F       5.041294       -4.572425       -1.106515  
F       5.488089        0.667429       -0.772778  
F       4.664284        1.355050        1.135734  
F       6.192224       -0.211405        1.101135  
H      -3.509333       -1.949287       -0.619186  
N      -3.937046        0.090428       -0.844281  
C      -4.983806        1.209205       -0.627450  
C      -3.617806       -0.253430       -2.323459  
H      -4.519425        2.040258       -1.157556  
H      -2.635774       -0.726963       -2.225820  
S      -1.032579       -2.652313       -0.664044  
C      -4.561221       -1.272503       -2.962536  
C      -3.472573        1.004655       -3.175390  
C      -5.038566        1.617667        0.845157  
C      -6.365470        0.988535       -1.238437  
H      -4.033867        1.808153        1.229321  
H      -5.606910        2.551882        0.902686  
H      -5.541713        0.881518        1.476032  
H      -6.918579        0.164464       -0.788148  
H      -6.931135        1.910159       -1.060709  
H      -6.314061        0.841878       -2.318153  
H      -4.598885       -2.212993       -2.408317  
H      -5.576913       -0.892736       -3.086774  
H      -4.160118       -1.493451       -3.957374  
H      -3.029537        0.705613       -4.130817  
H      -4.442105        1.468400       -3.383087  
H      -2.817628        1.734722       -2.695069  
