75
ts1
C        1.5326530        6.3112500       -1.3012350
C        2.0199790        5.0287540       -1.0826470
C        1.1433070        3.9233360       -1.0456180
C       -0.2560130        4.1273840       -1.2224490
C       -0.7303520        5.4358280       -1.4410980
C        0.1506600        6.5114770       -1.4868910
H        2.6871470        2.4280990       -0.7273610
H        2.2137860        7.1572160       -1.3335410
H        3.0854290        4.8587630       -0.9436970
C        1.6195540        2.5768720       -0.8784280
C       -1.1480940        2.9988820       -1.0612520
H       -1.7980490        5.5967510       -1.5753460
H       -0.2305230        7.5137370       -1.6661180
C       -0.6363580        1.6441980       -1.1489590
C        0.7927200        1.4932680       -0.9699940
O       -1.3748710        0.6249530       -1.3295070
H       -2.9016990        0.2327530       -1.0245280
C       -1.4853980        3.1789140        1.0405540
C       -0.3123950        3.1614640        1.7933630
H       -2.1651770        2.3396000        1.1359000
H       -1.9383610        4.1503770        0.8730630
H        0.3557340        4.0069480        1.8750730
N        0.1566000        2.0228800        2.4097820
O        1.2738130        2.0345010        2.9865510
O       -0.5633680        0.9558920        2.4283980
H       -2.1855750        3.1452430       -1.3536220
H        1.1911820        0.4861930       -0.9254060
C       -1.2623610       -1.8211200        0.5746430
N       -0.0213810       -1.3593330        0.9524900
N       -2.2524370       -1.0218380        1.0652890
H       -1.9513780       -0.1655660        1.5211000
H       -0.0492250       -0.5378230        1.5717540
C        1.2804440       -1.6591990        0.5501180
C        2.2923210       -0.8967740        1.1740950
C        1.6518220       -2.5962870       -0.4260850
C        3.6258610       -1.0695110        0.8224830
H        2.0222190       -0.1540670        1.9207570
C        3.0003070       -2.7512310       -0.7599620
H        0.8917040       -3.1849080       -0.9197430
C        4.0037320       -2.0003880       -0.1504160
H        5.0433100       -2.1313330       -0.4206550
C       -3.7021870       -1.2363950        1.0739610
C       -4.3405000       -1.2103690       -0.3322950
C       -4.1160650       -2.5089420        1.8450010
H       -4.0975960       -0.3840650        1.6371230
C       -5.8617270       -1.3804160       -0.2532000
C       -5.6400140       -2.6724330        1.8945270
H       -3.6689880       -3.3783790        1.3563540
H       -3.6940720       -2.4354250        2.8530010
C       -6.2229250       -2.6831120        0.4760290
H       -6.2921230       -1.3765250       -1.2597770
H       -6.2994660       -0.5418130        0.3022220
H       -5.8905970       -3.6000620        2.4214780
H       -6.0866210       -1.8424990        2.4608530
H       -7.3129860       -2.7887900        0.5044040
H       -5.8217140       -3.5401440       -0.0810950
C        3.3476350       -3.8027400       -1.7893630
C        4.6607050       -0.1697870        1.4577490
F        2.5383320       -3.7344360       -2.8852160
F        3.2017210       -5.0652230       -1.2821150
F        4.6276950       -3.7071270       -2.2368180
F        4.6852210        1.0602780        0.8544820
F        4.4149490        0.0528890        2.7772960
F        5.9216760       -0.6715520        1.3661520
H       -3.9001390       -2.0228400       -0.9132880
N       -3.9540510        0.0567130       -1.0928500
C       -4.6021310        1.3073470       -0.5908180
C       -4.1879320       -0.0950750       -2.5651070
H       -4.1310190        2.1464900       -1.1035130
H       -5.6686450        1.2827100       -0.8143780
H       -4.4417120        1.3929380        0.4839550
H       -3.6647800       -0.9915660       -2.9002000
H       -5.2581310       -0.1750790       -2.7584570
H       -3.7750050        0.7860430       -3.0586450
S       -1.5414040       -3.2105840       -0.3555280
