75
ts1
 C                 -5.15644300   -1.90067800   -1.04804800
 C                 -4.21058300   -0.91694300   -1.28452100
 C                 -2.83277400   -1.22117000   -1.31443700
 C                 -2.40184600   -2.56589200   -1.09007700
 C                 -3.39810400   -3.55057700   -0.88110600
 C                 -4.75541000   -3.24121400   -0.84840200
 H                 -2.21767200    0.76278700   -1.92162500
 H                 -6.21392900   -1.64728200   -1.01933400
 H                 -4.51976600    0.11225800   -1.45314900
 C                 -1.86037500   -0.22785700   -1.64513000
 C                 -0.98706100   -2.86318600   -1.02751000
 H                 -3.10371400   -4.58460300   -0.72521400
 H                 -5.48318680   -4.00615596   -0.67489487
 C                 -0.01756200   -1.79709300   -1.26489400
 C                 -0.51770300   -0.48545100   -1.66761200
 O                  1.23381900   -2.00903100   -1.16155100
 H                  2.82331000   -1.06046700   -0.97797300
 C                 -0.85459200   -2.96919300    1.30973900
 C                  0.41649600   -3.37378500    1.63960500
 H                 -1.18846600   -1.96419200    1.53215500
 H                 -1.61693000   -3.72436500    1.17183400
 H                  0.79012200   -4.37216400    1.45756800
 N                  1.37771400   -2.51272400    2.13811700
 O                  2.57194000   -2.90124800    2.24543800
 O                  1.04664000   -1.33938300    2.54087000
 H                 -0.65386608   -3.85624068   -0.80905279
 H                  0.16720392    0.27471975   -1.98057038
 C                  2.15733100    1.32395100    0.75422500
 N                  0.84923000    1.06471500    1.10380900
 N                  2.96854200    0.29853400    1.14189300
 H                  2.54324000   -0.40835200    1.74330800
 H                  0.72309200    0.16185800    1.57146400
 C                 -0.36687800    1.70942400    0.87341100
 C                 -1.48359600    1.12500100    1.50535300
 C                 -0.57098200    2.81925200    0.04219100
 C                 -2.76347100    1.61599400    1.28566700
 H                 -1.33737300    0.26885500    2.15591600
 C                 -1.86735100    3.30092300   -0.15801500
 H                  0.27025800    3.28152300   -0.45303300
 C                 -2.97710800    2.71381400    0.44697100
 H                 -3.97567200    3.09271800    0.27204700
 C                  4.39260900    0.08350300    0.87976800
 C                  4.70032000   -0.07878800   -0.62292600
 C                  5.30825800    1.14086900    1.53443500
 H                  4.60833300   -0.87258300    1.36700100
 C                  6.78930800    0.84948600    1.26649000
 C                  6.18975300   -0.35124200   -0.86074400
 H                  4.40284200    0.83787400   -1.13608200
 H                  5.05121500    2.12540300    1.13708100
 C                  7.04784500    0.76327600   -0.24288500
 H                  7.40372400    1.63658900    1.71807700
 H                  7.07729600   -0.10172100    1.73663700
 H                  6.38676200   -0.43723900   -1.93361700
 H                  6.47009100   -1.30007600   -0.38847100
 H                  8.10402000    0.55627500   -0.44693100
 H                  6.80066800    1.72396100   -0.71391300
 C                 -2.04749400    4.44336200   -1.13122100
 C                 -3.92622000    0.98472300    2.01553200
 F                 -1.09909200    5.40858000   -0.97597600
 F                 -1.94677500    4.00896400   -2.42734500
 F                 -3.25723100    5.05209400   -1.01850100
 F                 -4.09522800    1.54404700    3.25471800
 F                 -3.75391000   -0.34998300    2.21643400
 F                 -5.10490500    1.14298900    1.35690800
 H                  5.09237100    1.14334100    2.60831300
 N                  3.82656600   -1.17308000   -1.24994200
 C                  3.81584800   -1.07733100   -2.74690600
 C                  4.16990900   -2.57293300   -0.82247200
 H                  3.40717700   -3.22494000   -1.24555000
 H                  5.15869900   -2.82851000   -1.20167200
 H                  4.13129100   -2.63185900    0.26485300
 H                  3.56108100   -0.05362800   -3.02415600
 H                  4.79996700   -1.34724700   -3.13048400
 H                  3.05393300   -1.76847100   -3.10724200
 S                  2.69069500    2.71170100   -0.05828800
