73
F:55-60;
P      -0.195406        1.026213       -0.924576  
C      -1.856930        0.971885       -1.782993  
O      -2.067171        2.259134       -2.395911  
H      -1.852127        0.230004       -2.588211  
P      -2.504576       -0.453502        0.596173  
C      -3.006614        0.667187       -0.817104  
O      -4.081574        0.018830       -1.523285  
H      -3.403164        1.609606       -0.425413  
C      -3.610769        0.021114        1.964673  
C       1.013646        0.615416       -2.223267  
H      -4.640739        0.124160        1.613943  
H      -3.568379       -0.749919        2.737141  
H      -3.265350        0.964521        2.393827  
H       0.819824        1.192999       -3.130384  
H       2.019456        0.841217       -1.856545  
H       0.962637       -0.454765       -2.440245  
C      -3.314998       -1.823224       -0.241933  
C      -4.090146       -1.330739       -1.300158  
C      -4.861681       -2.180683       -2.087727  
H      -5.455330       -1.781269       -2.903503  
C      -3.296812       -3.191508        0.029800  
C      -4.062265       -4.052668       -0.751807  
H      -4.054028       -5.119289       -0.551681  
C      -4.837467       -3.542744       -1.798769  
H      -5.429258       -4.219876       -2.407675  
C      -0.302189        2.823357       -0.918861  
C      -1.336639        3.233314       -1.770420  
C      -1.595192        4.582432       -1.994596  
C       0.482212        3.773567       -0.265125  
C       0.230717        5.126549       -0.476999  
H       0.831014        5.876762        0.027663  
C      -0.799203        5.518680       -1.338424  
H      -2.400417        4.882920       -2.656949  
H      -0.992237        6.575756       -1.496782  
Rh      -0.241015       -0.272772        1.005066  
C       4.784117       -0.163084       -0.875539  
C       3.868838        0.241505        0.108055  
C       2.827000       -0.604743        0.492357  
C       2.696929       -1.863807       -0.124697  
C       3.608609       -2.247949       -1.102923  
C       4.662823       -1.405954       -1.488850  
O       5.758212        0.736642       -1.173706  
H       3.983283        1.223381        0.559349  
H       1.858063       -2.501641        0.121363  
O       3.549277       -3.433812       -1.767235  
H       5.344445       -1.745392       -2.259626  
C       1.883602       -0.092860        1.499490  
H       2.034675        0.961054        1.731898  
C       1.763793       -2.203392        3.002227  
H       1.073088       -2.665721        3.709956  
H       1.886764       -2.873141        2.154225  
H       2.742661       -2.096940        3.483014  
N       0.921739       -0.032188        3.725816  
H       1.342074       -0.283331        4.610977  
C       1.281391       -0.839798        2.578804  
C       0.111140        1.043025        3.663569  
O      -0.494179        1.333115        2.608665  
H      -2.688373       -3.576594        0.844639  
H       1.282143        3.454247        0.399367  
H      -0.220747       -1.378750        2.218444  
H      -0.044524       -1.469158        0.040810  
C      -0.050063        1.869937        4.894795  
H       0.423970        2.841426        4.734597  
H      -1.111516        2.052723        5.069274  
H       0.390350        1.410437        5.779767  
C       2.477439       -4.308704       -1.446673  
H       2.508146       -4.608220       -0.392568  
H       1.507021       -3.844951       -1.663167  
H       2.608506       -5.186817       -2.077223  
C       6.700582        0.369662       -2.172345  
H       7.256933       -0.528796       -1.882230  
H       6.209130        0.196641       -3.136433  
H       7.387519        1.210184       -2.259849  
