73
F:55-60;
P      -0.116625        1.019787       -0.885720  
C      -1.827490        1.221836       -1.615888  
O      -1.908921        2.553049       -2.160978  
H      -1.979018        0.524395       -2.446237  
P      -2.496629       -0.270710        0.706859  
C      -2.932406        1.019485       -0.575061  
O      -4.144588        0.591529       -1.225009  
H      -3.148218        1.976955       -0.089622  
C      -3.441971        0.222441        2.184296  
C       0.932230        0.520981       -2.289610  
H      -4.460805        0.511458        1.914267  
H      -3.479016       -0.619828        2.878583  
H      -2.932758        1.055779        2.673450  
H       0.732974        1.148503       -3.161702  
H       1.983501        0.623093       -2.004326  
H       0.744504       -0.529081       -2.529470  
C      -3.541353       -1.444919       -0.170108  
C      -4.322076       -0.760603       -1.111080  
C      -5.264027       -1.426922       -1.889710  
H      -5.858551       -0.880798       -2.614776  
C      -3.691956       -2.822593       -0.009538  
C      -4.628228       -3.501471       -0.784741  
H      -4.751905       -4.573596       -0.671755  
C      -5.405940       -2.801089       -1.712917  
H      -6.132419       -3.336767       -2.317104  
C       0.020835        2.813754       -0.809864  
C      -1.007899        3.393099       -1.564730  
C      -1.093774        4.772514       -1.729262  
C       0.975948        3.622825       -0.194642  
C       0.899396        5.004656       -0.348642  
H       1.634409        5.646514        0.126278  
C      -0.128543        5.565976       -1.113948  
H      -1.896567        5.204727       -2.317563  
H      -0.184413        6.644586       -1.227359  
Rh      -0.207390       -0.388126        0.969763  
C       4.708360       -0.587879       -1.189119  
C       3.897346       -0.195108       -0.117332  
C       2.783741       -0.972351        0.236720  
C       2.487949       -2.133939       -0.489570  
C       3.302766       -2.506880       -1.561395  
C       4.414488       -1.741112       -1.915588  
O       5.802695        0.105677       -1.602456  
H       4.112158        0.706304        0.447401  
H       1.595220       -2.699783       -0.255768  
O       3.071238       -3.600698       -2.336729  
H       5.034857       -2.032216       -2.755952  
C       1.948110       -0.465868        1.336800  
H       2.213356        0.545683        1.643767  
C       1.686224       -2.679074        2.659006  
H       0.997694       -3.128390        3.377132  
H       1.676292       -3.278449        1.751480  
H       2.701037       -2.721238        3.070010  
N       1.128310       -0.502586        3.616634  
H       1.560236       -0.874492        4.452180  
C       1.331535       -1.240285        2.387281  
C       0.448765        0.659447        3.687590  
O      -0.174013        1.103257        2.697783  
H      -3.081900       -3.354861        0.716257  
H       1.769695        3.171428        0.396986  
H      -0.244075       -1.584700        2.092432  
H      -0.214608       -1.516181       -0.092660  
C       0.452971        1.394647        4.985850  
H       0.993985        2.335505        4.857714  
H      -0.572700        1.646901        5.260147  
H       0.918881        0.832756        5.795621  
C       1.916196       -4.374147       -2.045462  
H       1.960848       -4.794601       -1.033940  
H       1.001098       -3.777843       -2.149657  
H       1.905848       -5.183622       -2.773901  
C       6.116120        1.306299       -0.910874  
H       5.299753        2.034313       -0.986929  
H       6.333333        1.112934        0.145717  
H       7.005253        1.707409       -1.395206  
