45
R.bp4 optimized geometry
Si  -0.035640   -0.662211    0.768583  
O   1.673044   -0.324362    0.487430  
C   2.263550    0.040925   -0.648238  
C   3.740143    0.211883   -0.571682  
H   1.749236    0.819841   -1.218285  
C   4.508440   -0.451820    0.397274  
C   4.365201    1.053086   -1.504692  
C   5.889964   -0.264891    0.432846  
H   4.017467   -1.099138    1.117035  
C   5.747847    1.238493   -1.464931  
H   3.764586    1.566534   -2.251950  
C   6.512577    0.577544   -0.497405  
H   6.483604   -0.773579    1.187418  
H   6.226838    1.898354   -2.182914  
H   7.589253    0.720520   -0.465262  
C   2.132684   -1.329721   -2.001177  
C   0.906750   -1.818323   -1.622118  
H   2.205566   -0.752031   -2.922604  
H   2.987660   -1.977932   -1.806920  
C  -0.076882   -1.996203   -0.848638  
H  -0.863297   -2.735439   -0.855831  
Cl  -0.096577    0.790859    2.444551  
Cl   0.357346   -2.401480    2.091900  
O  -0.556408    0.629729   -0.537598  
O  -1.922006   -0.909519    1.060848  
C  -2.745374    1.395353   -0.270848  
C  -3.241417    0.057428   -0.629262  
C  -3.289397   -2.283874   -0.192612  
C  -0.885627    2.842448    0.071845  
C  -1.731109    3.913184    0.312361  
C  -3.615418    2.457125   -0.034158  
C  -3.112402    3.723166    0.261014  
C  -4.225022   -0.110551   -1.602673  
C  -4.738048   -1.375813   -1.878460  
C  -4.263482   -2.472992   -1.157829  
H  -4.681834    2.269162   -0.065794  
H  -3.791529    4.546282    0.453820  
H  -4.568470    0.764206   -2.142385  
H  -5.498182   -1.501129   -2.641549  
H  -4.640488   -3.474583   -1.328789  
H  -2.876832   -3.066854    0.430469  
N  -1.400351    1.625431   -0.222079  
N  -2.792513   -1.044143    0.049930  
H   0.193840    2.893515    0.089085  
H  -1.296371    4.879284    0.540532  
