45
R.bp5 optimized geometry
Si  -0.088566   -0.804860    0.415345  
O   1.549681   -0.504854   -0.152092  
C   2.676383   -0.454929    0.553679  
C   3.901754   -0.122681   -0.223139  
H   2.803711   -1.255985    1.287568  
C   3.835846    0.561718   -1.446700  
C   5.148296   -0.502847    0.297629  
C   5.008602    0.853725   -2.142995  
H   2.868530    0.844610   -1.849460  
C   6.319100   -0.209802   -0.402248  
H   5.196175   -1.036854    1.243618  
C   6.251581    0.471426   -1.622886  
H   4.955112    1.375800   -3.094479  
H   7.280703   -0.515877    0.000157  
H   7.162784    0.699384   -2.169155  
C   2.675684    1.001488    1.826556  
C   1.333227    0.970237    2.110455  
H   3.363052    0.603323    2.572575  
H   3.050146    1.876606    1.294217  
C   0.129342    0.617359    1.973512  
H  -0.781485    0.873769    2.494063  
Cl  -0.464304   -2.206688   -1.255363  
Cl   0.388134   -2.419297    1.873195  
O  -1.892358   -0.833595    1.032626  
O  -0.669803    0.570613   -0.791762  
C  -3.374834    0.255727   -0.423167  
C  -2.702195    1.533636   -0.142530  
C  -0.676426    2.787395   -0.124596  
C  -3.493844   -2.095278   -0.057546  
C  -4.612441   -2.189521   -0.869511  
C  -4.503274    0.186857   -1.235887  
C  -5.129074   -1.037876   -1.464143  
C  -3.408211    2.669786    0.245915  
C  -2.738571    3.873814    0.457634  
C  -1.356584    3.928193    0.268575  
H  -4.865024    1.098355   -1.696600  
H  -6.002908   -1.090292   -2.104233  
H  -4.478827    2.587938    0.392553  
H  -3.289221    4.755074    0.767653  
H  -0.796486    4.843519    0.420324  
H   0.387203    2.733604   -0.311432  
N  -2.912847   -0.892103    0.158284  
N  -1.349433    1.628678   -0.326287  
H  -3.025003   -2.924807    0.453204  
H  -5.064026   -3.162299   -1.024350  
