91
F:47-61;
P      -2.486817       -0.285648       -0.692754  
C      -2.565009       -2.052308       -0.072737  
O      -3.559067       -2.095437        0.967731  
H      -2.877448       -2.738674       -0.872365  
P       0.011407       -1.167750        0.870258  
C      -1.242092       -2.534765        0.486386  
O      -0.624859       -3.397636       -0.482294  
H      -1.433423       -3.120954        1.396373  
C       0.128806       -1.126437        2.746551  
C      -2.735506       -0.395067       -2.551690  
C       0.460380       -2.507848        3.308508  
C       1.233080       -0.143773        3.134294  
C      -1.224458       -0.636487        3.266137  
C      -4.087755       -1.022366       -2.879685  
C      -2.649080        1.017864       -3.128853  
C      -1.593439       -1.250136       -3.108082  
C       1.314243       -2.229392        0.225808  
C       0.738059       -3.303698       -0.465805  
C       1.517574       -4.248446       -1.126458  
H       1.045487       -5.069893       -1.655161  
C       2.705575       -2.113724        0.276597  
C       3.498151       -3.063954       -0.360062  
H       4.579792       -2.977454       -0.317492  
C       2.902438       -4.114622       -1.064314  
H       3.526729       -4.847620       -1.567433  
C      -4.050989        0.065880        0.122971  
C      -4.387463       -1.008353        0.956642  
C      -5.507522       -0.967724        1.780480  
C      -4.838211        1.220343        0.134807  
C      -5.968490        1.270993        0.947322  
H      -6.594224        2.157672        0.949900  
C      -6.294637        0.181751        1.761341  
H      -5.751689       -1.815414        2.412296  
H      -7.175827        0.227737        2.394378  
Rh      -0.547802        0.800278       -0.037869  
C       4.406725        0.133964       -1.368836  
C       3.126381        0.683017       -1.257274  
C       2.733930        1.303745       -0.064319  
C       3.631508        1.385090        1.005118  
C       4.917133        0.838672        0.877379  
C       5.308481        0.214479       -0.306557  
O       4.848850       -0.532547       -2.469411  
H       2.415662        0.605522       -2.075945  
H       3.321605        1.880080        1.920018  
O       5.851151        0.864076        1.866629  
H       6.293911       -0.231097       -0.391063  
C       1.379670        1.933168        0.054773  
H       1.206343        2.215300        1.104900  
C       2.497067        4.039050       -0.896836  
H       2.854040        4.313478        0.102178  
H       3.290520        3.474354       -1.387746  
H       2.323613        4.952769       -1.472154  
N       0.184588        4.087339       -0.258357  
H       0.469745        5.005893        0.052152  
C       1.222749        3.210042       -0.809281  
C      -1.119719        3.803159       -0.255529  
O      -1.556780        2.682529       -0.620882  
H       3.170790       -1.286228        0.807455  
H      -4.565083        2.069894       -0.485933  
H       0.905452        2.931694       -1.824837  
H       0.731375        0.707772       -0.912227  
C      -2.077730        4.865424        0.175745  
H      -2.722403        4.474466        0.965839  
H      -1.582972        5.771670        0.526497  
H      -2.722963        5.122352       -0.667992  
H      -1.634423       -2.285720       -2.753762  
H      -1.664622       -1.274298       -4.200800  
H      -0.611564       -0.838718       -2.842546  
H      -1.678367        1.478190       -2.917716  
H      -2.779719        0.968562       -4.215531  
H      -3.426908        1.676897       -2.729476  
H      -4.920155       -0.410744       -2.518781  
H      -4.184840       -1.112790       -3.967412  
H      -4.199484       -2.028171       -2.460791  
H      -2.040636       -1.318393        3.000566  
H      -1.194627       -0.566860        4.358815  
H      -1.469786        0.357863        2.873019  
H       1.018610        0.869602        2.779055  
H       1.316537       -0.105025        4.226123  
H       2.209418       -0.446480        2.739524  
H       1.418899       -2.882834        2.937044  
H       0.532086       -2.432711        4.399222  
H      -0.307424       -3.255738        3.089623  
C       5.478374        1.454630        3.103870  
H       5.230772        2.515135        2.981280  
H       4.625674        0.932820        3.555099  
H       6.346173        1.358891        3.754794  
C       3.896305       -0.798561       -3.489973  
H       3.040382       -1.360250       -3.092352  
H       3.539387        0.126668       -3.956835  
H       4.414155       -1.401694       -4.234568  
energy=-2586.40299757
