91
F:47-61;
P       2.556861       -0.278723        0.759367  
C       2.607447       -2.082398        0.256017  
O       3.607013       -2.212967       -0.771195  
H       2.900993       -2.719711        1.101956  
P       0.062754       -1.212419       -0.785313  
C       1.276425       -2.574956       -0.275492  
O       0.629105       -3.333974        0.758032  
H       1.456709       -3.241668       -1.130806  
C      -0.015729       -1.330074       -2.661160  
C       2.816766       -0.273071        2.619556  
C      -0.427102       -2.732122       -3.105335  
C      -1.040624       -0.315024       -3.162306  
C       1.377009       -0.977674       -3.188761  
C       4.157461       -0.908720        2.978324  
C       2.769570        1.175520        3.104141  
C       1.659182       -1.066156        3.231035  
C      -1.272814       -2.187742       -0.074811  
C      -0.731654       -3.215623        0.709174  
C      -1.541835       -4.086432        1.431472  
H      -1.096766       -4.873107        2.031824  
C      -2.659443       -2.040231       -0.151043  
C      -3.482221       -2.917942        0.548575  
H      -4.561034       -2.815913        0.476829  
C      -2.922050       -3.924226        1.340999  
H      -3.570371       -4.599698        1.891706  
C       4.124560       -0.005756       -0.076039  
C       4.449380       -1.137329       -0.835220  
C       5.571763       -1.163520       -1.657076  
C       4.927635        1.134046       -0.156178  
C       6.061427        1.117619       -0.965228  
H       6.700377        1.993141       -1.020756  
C       6.373680       -0.025047       -1.708405  
H       5.806665       -2.052255       -2.233572  
H       7.256354       -0.030646       -2.340952  
Rh       0.643484        0.801398        0.005487  
C      -4.401412        0.485614        1.242874  
C      -3.099074        0.971359        1.124771  
C      -2.620594        1.413935       -0.113796  
C      -3.463244        1.370331       -1.226256  
C      -4.764641        0.869978       -1.103749  
C      -5.250298        0.422970        0.129831  
O      -4.767165        0.070289        2.485012  
H      -2.463026        0.982544        2.007647  
H      -3.125458        1.726121       -2.195548  
O      -5.499444        0.854917       -2.248554  
H      -6.254769        0.030899        0.222411  
C      -1.241691        1.985195       -0.243987  
H      -1.034411        2.176808       -1.307623  
C      -2.305084        4.204662        0.489814  
H      -2.611315        4.413286       -0.541407  
H      -3.140318        3.714864        0.991205  
H      -2.112130        5.153506        0.998255  
N       0.028859        4.110354       -0.054508  
H      -0.206344        5.002592       -0.467308  
C      -1.064964        3.320727        0.520930  
C       1.318031        3.778736        0.032654  
O       1.687058        2.681930        0.524342  
H      -3.096016       -1.251176       -0.759010  
H       4.665638        2.023763        0.410861  
H      -0.798248        3.115015        1.567650  
H      -0.671365        0.793965        0.836715  
C       2.340558        4.750346       -0.458993  
H       2.944336        4.275140       -1.235647  
H       1.905217        5.669336       -0.852423  
H       3.015357        5.000733        0.362886  
H       1.672858       -2.120108        2.933012  
H       1.735932       -1.030486        4.323007  
H       0.686533       -0.648041        2.945773  
H       1.812572        1.648717        2.863694  
H       2.901292        1.193542        4.191679  
H       3.565405        1.784506        2.662582  
H       5.000022       -0.345861        2.565023  
H       4.264786       -0.921877        4.068879  
H       4.239921       -1.945067        2.633803  
H       2.136292       -1.704463       -2.877923  
H       1.360265       -0.967661       -4.283988  
H       1.696201        0.015889       -2.850690  
H      -0.759249        0.708420       -2.894372  
H      -1.102461       -0.370762       -4.254606  
H      -2.042064       -0.509625       -2.763388  
H      -1.425816       -2.998078       -2.746159  
H      -0.446579       -2.760520       -4.200505  
H       0.271122       -3.507476       -2.776497  
C      -6.824270        0.347222       -2.172501  
H      -6.830574       -0.699684       -1.847889  
H      -7.440217        0.943169       -1.489706  
H      -7.230310        0.416669       -3.180571  
C      -6.097430       -0.395013        2.662750  
H      -6.827698        0.382891        2.412769  
H      -6.295938       -1.286605        2.056707  
H      -6.186248       -0.650071        3.717748  
energy=-2586.40214795
