91
F:55-61;
P       2.171199        1.189911        0.166249  
C       2.584420        1.006329       -1.655423  
O       2.100002        2.167173       -2.354720  
H       3.665566        0.947456       -1.820802  
P       0.505932       -0.951127       -1.228339  
C       1.949887       -0.246204       -2.229763  
O       2.956892       -1.272405       -2.235738  
H       1.638969       -0.054984       -3.266276  
C      -1.013482       -0.598169       -2.279554  
C       3.756932        1.672463        1.047343  
C      -0.836155       -1.148409       -3.694867  
C      -2.225515       -1.260378       -1.632009  
C      -1.198385        0.919178       -2.306893  
C       4.562347        2.666703        0.211447  
C       3.373868        2.322906        2.378238  
C       4.545691        0.383808        1.280703  
C       1.105746       -2.610744       -1.608627  
C       2.420536       -2.519705       -2.085449  
C       3.170141       -3.652468       -2.385008  
H       4.185896       -3.552169       -2.753139  
C       0.523039       -3.870892       -1.445546  
C       1.255235       -5.012885       -1.757650  
H       0.801727       -5.992461       -1.647167  
C       2.572522       -4.898066       -2.212878  
H       3.140457       -5.793050       -2.448780  
C       1.281571        2.711516       -0.198003  
C       1.385576        3.017177       -1.558226  
C       0.759691        4.135306       -2.102426  
C       0.506039        3.521757        0.635853  
C      -0.126745        4.641887        0.106451  
H      -0.729988        5.277486        0.746769  
C       0.004763        4.940739       -1.253939  
H       0.852262        4.351578       -3.161938  
H      -0.497993        5.812287       -1.663658  
Rh       0.738716       -0.450067        0.956971  
C      -3.752722        1.498879        0.338094  
C      -2.860951        1.004854        1.294271  
C      -3.053473       -0.269142        1.836415  
C      -4.143056       -1.039768        1.430794  
C      -5.026568       -0.540070        0.468619  
C      -4.843573        0.732193       -0.086316  
O      -3.481498        2.746128       -0.129779  
H      -2.023162        1.623875        1.605864  
H      -4.310918       -2.032832        1.838268  
O      -6.043938       -1.370126        0.113487  
H      -5.532258        1.116437       -0.827513  
C      -2.041062       -0.814390        2.801508  
H      -2.526425       -1.504907        3.507390  
C      -1.268487       -2.862878        1.483964  
H      -0.396408       -3.408946        1.115273  
H      -1.805403       -3.517028        2.187507  
H      -1.943180       -2.670576        0.647046  
N       0.025281       -1.937811        3.300943  
H      -0.359285       -2.613015        3.954886  
C      -0.852925       -1.575547        2.157500  
C       1.048317       -1.194025        3.718353  
O       1.500326       -0.267350        2.992642  
H       0.395370        3.270947        1.688527  
H      -0.498845       -3.962773       -1.087424  
H      -1.621910        0.006902        3.394666  
H      -0.830549       -0.403079        1.010258  
C       1.667861       -1.473510        5.045060  
H       2.751725       -1.534070        4.932983  
H       1.457744       -0.637838        5.717382  
H       1.297565       -2.391712        5.501358  
H       4.793775       -0.123029        0.340591  
H       5.489176        0.618118        1.786069  
H       3.987153       -0.315123        1.912233  
H       4.287279        2.522875        2.949593  
H       2.870107        3.282612        2.223132  
H       2.730635        1.678241        2.982226  
H       3.983157        3.565828       -0.025517  
H       5.438476        2.983177        0.788387  
H       4.932417        2.236793       -0.724161  
H      -0.377060        1.419639       -2.831674  
H      -2.123099        1.161267       -2.843470  
H      -1.278395        1.343246       -1.297895  
H      -2.390287       -0.896760       -0.614257  
H      -3.122708       -1.017995       -2.213779  
H      -2.136495       -2.352276       -1.610954  
H      -0.672942       -2.230582       -3.696333  
H      -1.751537       -0.948282       -4.262549  
H      -0.013346       -0.676898       -4.239527  
C      -6.932736       -0.924080       -0.900961  
H      -7.467834       -0.018368       -0.593876  
H      -6.398209       -0.730894       -1.838872  
H      -7.647097       -1.732202       -1.050614  
C      -4.358034        3.293315       -1.102995  
H      -4.389049        2.675823       -2.008545  
H      -5.373876        3.405369       -0.706702  
H      -3.953478        4.274377       -1.349546  
energy=-2586.39803554
