91
F:55-61;
P       2.247077        0.980379        0.260985  
C       2.758595        0.735214       -1.526921  
O       2.476429        1.943424       -2.255913  
H       3.831934        0.537811       -1.617341  
P       0.427924       -0.945875       -1.242742  
C       2.012123       -0.430993       -2.144474  
O       2.878544       -1.577566       -2.078038  
H       1.799435       -0.214302       -3.200438  
C      -0.979779       -0.389352       -2.357046  
C       3.822791        1.305871        1.227098  
C      -0.789638       -0.897174       -3.785782  
C      -2.286518       -0.935548       -1.790871  
C      -1.005827        1.138789       -2.324454  
C       4.759601        2.221253        0.440462  
C       3.436227        1.982342        2.543557  
C       4.471210       -0.054260        1.486988  
C       0.824888       -2.664310       -1.624086  
C       2.171991       -2.745267       -2.001268  
C       2.783866       -3.964073       -2.275296  
H       3.828187       -3.996112       -2.567215  
C       0.067728       -3.836024       -1.539286  
C       0.661334       -5.061731       -1.826980  
H       0.072418       -5.971873       -1.777953  
C       2.012917       -5.120002       -2.180369  
H       2.471661       -6.080362       -2.396709  
C       1.553580        2.584583       -0.169473  
C       1.802820        2.873250       -1.514566  
C       1.352995        4.053462       -2.100207  
C       0.801132        3.473836        0.601678  
C       0.336887        4.653418        0.028301  
H      -0.253665        5.347235        0.618270  
C       0.617689        4.935718       -1.312919  
H       1.558147        4.256904       -3.146330  
H       0.247990        5.855802       -1.756652  
Rh       0.607529       -0.502837        0.962132  
C      -3.544023        2.005059        0.279122  
C      -2.798549        1.346690        1.268339  
C      -3.156812        0.065494        1.677316  
C      -4.273478       -0.567735        1.111596  
C      -4.998165        0.092007        0.117321  
C      -4.644777        1.382744       -0.302549  
O      -3.106280        3.247851       -0.052126  
H      -1.939488        1.850392        1.704428  
H      -4.540877       -1.568483        1.434721  
O      -6.063341       -0.451891       -0.531591  
H      -5.235059        1.852985       -1.080678  
C      -2.282963       -0.646738        2.668561  
H      -2.886934       -1.317366        3.298290  
C      -1.640378       -2.724657        1.330576  
H      -0.809206       -3.351650        0.998501  
H      -2.282703       -3.331534        1.986531  
H      -2.241342       -2.447424        0.461052  
N      -0.353438       -1.966377        3.232205  
H      -0.832347       -2.611528        3.854092  
C      -1.137827       -1.499030        2.057757  
C       0.714805       -1.332944        3.713382  
O       1.291122       -0.441265        3.032960  
H       0.577698        3.238471        1.639738  
H      -0.981599       -3.793997       -1.261950  
H      -1.821445        0.089222        3.336794  
H      -0.949258       -0.298652        0.945376  
C       1.242547       -1.701245        5.057828  
H       2.295915       -1.975161        4.969756  
H       1.191291       -0.826680        5.710504  
H       0.693607       -2.521109        5.520676  
H       4.721152       -0.576812        0.555894  
H       5.403594        0.084712        2.045167  
H       3.814514       -0.700853        2.078507  
H       4.337468        2.110698        3.153435  
H       3.013388        2.978028        2.373374  
H       2.721225        1.386801        3.116515  
H       4.280137        3.171659        0.182440  
H       5.632350        2.450802        1.062245  
H       5.133220        1.760840       -0.479184  
H      -0.118153        1.571197       -2.798406  
H      -1.879587        1.495722       -2.881860  
H      -1.078574        1.525058       -1.299305  
H      -2.454398       -0.584588       -0.769434  
H      -3.123534       -0.575603       -2.400569  
H      -2.321719       -2.031025       -1.803049  
H      -0.750578       -1.989478       -3.834730  
H      -1.644575       -0.567828       -4.386485  
H       0.109507       -0.499698       -4.265225  
C      -6.377947       -1.804839       -0.233881  
H      -5.524123       -2.461453       -0.444183  
H      -6.678140       -1.925333        0.813023  
H      -7.211492       -2.070338       -0.882316  
C      -3.801545        3.935253       -1.081353  
H      -3.780021        3.370327       -2.020604  
H      -4.843121        4.127882       -0.799652  
H      -3.279479        4.882643       -1.215013  
energy=-2586.39766818
