81
F:55-60;
P       0.340096        1.396345       -0.582396  
C      -1.194217        1.834048       -1.545721  
O      -1.013497        3.163422       -2.042507  
H      -1.299059        1.171697       -2.412225  
P      -2.452516        0.304831        0.462775  
C      -2.466004        1.767231       -0.698276  
O      -3.613207        1.647483       -1.560644  
H      -2.578108        2.702232       -0.137900  
C      -3.346729        0.837722        1.956763  
C       1.532728        0.961103       -1.895521  
H      -4.280858        1.337670        1.689872  
H      -3.565595       -0.042762        2.565565  
H      -2.711616        1.509207        2.538517  
H       1.583658        1.751650       -2.648175  
H       2.525087        0.812098       -1.459431  
H       1.225359        0.018489       -2.357347  
C      -3.644514       -0.505862       -0.595184  
C      -4.116118        0.377208       -1.570391  
C      -5.079418       -0.005313       -2.500933  
H      -5.435093        0.694160       -3.248780  
C      -4.143311       -1.815204       -0.536714  
C      -5.102522       -2.222874       -1.467274  
H      -5.503484       -3.229377       -1.451252  
C      -5.553740       -1.311501       -2.427095  
H      -6.301635       -1.640089       -3.142948  
C       0.624370        3.177923       -0.311587  
C      -0.185863        3.890461       -1.228798  
C      -0.151862        5.268654       -1.370299  
C       1.520569        3.931344        0.473909  
C       1.560015        5.327678        0.340657  
H       2.254371        5.876481        0.967840  
C       0.738976        5.978267       -0.565989  
H      -0.804656        5.756938       -2.084828  
H       0.787604        7.059888       -0.646914  
Rh      -0.288760       -0.408696        0.829129  
C       4.787760       -1.358526       -0.766614  
C       3.883898       -1.099732        0.274255  
C       2.573835       -1.579309        0.211097  
C       2.163938       -2.319048       -0.915432  
C       3.069586       -2.558553       -1.944754  
C       4.389435       -2.085440       -1.883707  
O       6.036500       -0.851193       -0.595923  
H       4.227770       -0.532349        1.134487  
H       1.134328       -2.641833       -1.005509  
O       2.758505       -3.237629       -3.082079  
H       5.053380       -2.294605       -2.713841  
C       1.687437       -1.231389        1.331113  
H       2.133210       -0.514312        2.020600  
C       0.613665       -3.562138        1.713026  
H      -0.307162       -3.977238        2.128512  
H       0.646658       -3.797762        0.651664  
H       1.468078       -4.057718        2.187477  
N       0.464645       -1.762574        3.355006  
H       0.637852       -2.495096        4.030337  
C       0.709390       -2.080050        1.964027  
C       0.082930       -0.545487        3.789848  
O      -0.220288        0.361995        2.982714  
O      -3.643650       -2.589180        0.456382  
O       2.411299        3.452252        1.375138  
H      -0.829443       -1.815252        1.427605  
H      -0.377135       -1.115117       -0.549688  
C       0.021932       -0.315789        5.262231  
H       0.766573        0.436454        5.533759  
H      -0.956998        0.090594        5.523394  
H       0.208641       -1.218282        5.844618  
C       1.428032       -3.717054       -3.212690  
H       1.177927       -4.421850       -2.411125  
H       0.704713       -2.892124       -3.208433  
H       1.386389       -4.229505       -4.172670  
C       6.984585       -1.095604       -1.626326  
H       7.153008       -2.169762       -1.762757  
H       6.660623       -0.655686       -2.576181  
H       7.909242       -0.620323       -1.302323  
C       2.433273        2.068579        1.674198  
H       1.472907        1.733141        2.080250  
H       2.697077        1.470701        0.789670  
H       3.215102        1.936533        2.423091  
C      -4.109949       -3.933053        0.535009  
H      -5.189312       -3.965230        0.716102  
H      -3.874693       -4.485230       -0.380996  
H      -3.584708       -4.381648        1.376806  
