81
F:47-60;
P       1.529223        1.314454        0.968185  
C       3.195561        0.842878        0.268306  
O       3.957142        2.057899        0.129852  
H       3.740683        0.197154        0.964343  
P       1.561069       -0.911868       -1.271880  
C       3.093220        0.151875       -1.095489  
O       4.241290       -0.696664       -1.284180  
H       3.123040        0.911792       -1.883738  
C       1.160916       -0.891654       -3.047517  
C       1.860670        1.520885        2.753684  
H       2.055090       -1.060190       -3.652272  
H       0.435110       -1.682791       -3.248532  
H       0.707976        0.067531       -3.308947  
H       2.747353        2.140706        2.907909  
H       1.003544        2.000391        3.232795  
H       2.017646        0.542354        3.213357  
C       2.586817       -2.357683       -1.012836  
C       3.940124       -2.012113       -1.064193  
C       4.947220       -2.964767       -0.933454  
H       5.991248       -2.676195       -0.973816  
C       2.213600       -3.698601       -0.837781  
C       3.209423       -4.669625       -0.694068  
H       2.955018       -5.712893       -0.548555  
C       4.552593       -4.285891       -0.744890  
H       5.315170       -5.050851       -0.631854  
C       1.781412        2.956897        0.278712  
C       3.128714        3.131058       -0.056367  
C       3.620778        4.343872       -0.529733  
C       0.888651        4.029058        0.141503  
C       1.360485        5.254868       -0.339299  
H       0.692009        6.098803       -0.462424  
C       2.713104        5.390688       -0.661756  
H       4.668056        4.453273       -0.787734  
H       3.064831        6.348095       -1.034789  
Rh      -0.063115       -0.274677        0.259106  
C      -5.652455       -0.958335       -0.514303  
C      -4.484269       -1.255552        0.199727  
C      -3.327542       -0.501992       -0.033397  
C      -3.328929        0.523971       -0.980497  
C      -4.503862        0.805754       -1.684505  
C      -5.666325        0.070414       -1.454792  
O      -6.824994       -1.629366       -0.358659  
H      -4.461982       -2.055399        0.931984  
H      -2.414695        1.075405       -1.166164  
O      -4.600510        1.784435       -2.624445  
H      -6.570844        0.289908       -2.011365  
C      -2.152325       -0.827096        0.817269  
H      -2.154683       -1.857851        1.172479  
C      -2.153270        1.478706        1.986112  
H      -1.417249        2.144485        2.442176  
H      -2.481511        1.930617        1.050997  
H      -3.023641        1.425481        2.654929  
N      -1.079002       -0.479868        2.979202  
H      -1.552990       -0.249502        3.844558  
C      -1.591815        0.108598        1.760777  
C      -0.116054       -1.419052        2.996335  
O       0.516532       -1.701579        1.951373  
O      -0.392076        3.781330        0.506157  
O       0.883030       -3.944032       -0.842769  
H      -1.067556       -1.336574       -0.437846  
H      -0.498790        0.749243       -0.817034  
C       0.185872       -2.099437        4.289467  
H       1.266370       -2.135764        4.438285  
H      -0.284479       -1.611385        5.143718  
H      -0.169556       -3.132093        4.242234  
C      -3.438677        2.561127       -2.877314  
H      -3.104674        3.083786       -1.972654  
H      -2.618256        1.941596       -3.258766  
H      -3.724671        3.290925       -3.633295  
C      -6.855751       -2.682696        0.594187  
H      -6.142483       -3.473933        0.336821  
H      -6.639690       -2.313117        1.603115  
H      -7.867853       -3.083501        0.564321  
C       0.464160       -5.290375       -0.642742  
H       0.843723       -5.943552       -1.435514  
H       0.795737       -5.663705        0.331924  
H      -0.623815       -5.270869       -0.675946  
C      -1.316629        4.862274        0.426628  
H      -1.009780        5.690661        1.073476  
H      -1.419642        5.219442       -0.603536  
H      -2.270765        4.464775        0.771348  
