81
F:55-60;
P       0.219381        1.378159       -0.591946  
C      -1.301642        1.644904       -1.631734  
O      -1.195646        2.951201       -2.204361  
H      -1.332280        0.924363       -2.456483  
P      -2.533734        0.119335        0.384602  
C      -2.591561        1.545072       -0.815996  
O      -3.708364        1.341738       -1.701570  
H      -2.763540        2.490830       -0.290002  
C      -3.549952        0.617059        1.810761  
C       1.501020        0.991122       -1.833987  
H      -4.494249        1.054867        1.478534  
H      -3.754001       -0.266641        2.419997  
H      -2.993033        1.333977        2.417968  
H       1.483754        1.725357       -2.643185  
H       2.487459        1.002125       -1.360577  
H       1.329018       -0.013746       -2.229048  
C      -3.605765       -0.800331       -0.714804  
C      -4.108757        0.034745       -1.716623  
C      -5.000378       -0.430399       -2.679909  
H      -5.380573        0.233326       -3.448044  
C      -3.995525       -2.146799       -0.666192  
C      -4.881443       -2.636650       -1.629865  
H      -5.196394       -3.673392       -1.621805  
C      -5.368878       -1.770769       -2.613310  
H      -6.059130       -2.163202       -3.354329  
C       0.345520        3.189128       -0.402114  
C      -0.473370        3.784991       -1.392694  
C      -0.550709        5.152765       -1.600712  
C       1.130353        4.052961        0.387463  
C       1.053070        5.440360        0.190865  
H       1.662116        6.075938        0.824440  
C       0.229033        5.973987       -0.787342  
H      -1.205216        5.549380       -2.368483  
H       0.186880        7.051189       -0.917434  
Rh      -0.342071       -0.404976        0.879790  
C       4.820503       -1.024740       -0.525801  
C       3.872549       -0.791786        0.472988  
C       2.607761       -1.393741        0.407553  
C       2.307595       -2.228699       -0.676859  
C       3.263166       -2.455352       -1.668117  
C       4.529340       -1.859004       -1.609886  
O       6.012065       -0.390846       -0.364885  
H       4.137816       -0.145273        1.304708  
H       1.323789       -2.667483       -0.804209  
O       2.868341       -3.268967       -2.684478  
H       5.260802       -2.034551       -2.387328  
C       1.666333       -1.056419        1.485971  
H       2.036633       -0.270772        2.144680  
C       0.754589       -3.434926        1.969390  
H      -0.145802       -3.895622        2.381661  
H       0.836833       -3.721171        0.923506  
H       1.628796       -3.838421        2.492905  
N       0.418271       -1.561330        3.500951  
H       0.611936       -2.243185        4.222393  
C       0.734052       -1.938809        2.139488  
C      -0.068291       -0.353951        3.850170  
O      -0.413254        0.477432        2.980755  
O      -3.470958       -2.873336        0.349259  
O       2.013595        3.692543        1.349877  
H      -0.797695       -1.818549        1.533010  
H      -0.322730       -1.182194       -0.463030  
C      -0.186004       -0.039625        5.303160  
H       0.544029        0.733794        5.555710  
H      -1.176348        0.370944        5.505858  
H      -0.009986       -0.904134        5.943472  
C       3.798862       -3.524924       -3.727488  
H       4.082978       -2.601218       -4.244442  
H       4.698709       -4.021074       -3.346443  
H       3.289761       -4.187705       -4.425767  
C       7.005431       -0.594133       -1.360585  
H       7.288307       -1.650459       -1.430621  
H       6.664443       -0.242219       -2.340867  
H       7.868143       -0.008838       -1.046504  
C       2.155065        2.327067        1.697904  
H       1.221641        1.919908        2.101076  
H       2.485517        1.725207        0.838755  
H       2.932283        2.293023        2.462315  
C      -3.823976       -4.251642        0.419007  
H      -4.902418       -4.375539        0.562224  
H      -3.509391       -4.784348       -0.484384  
H      -3.292430       -4.650572        1.281756  
