81
F:55-60;
P       0.340064        1.396342       -0.582406  
C      -1.194276        1.834040       -1.545692  
O      -1.013571        3.163411       -2.042491  
H      -1.299140        1.171685       -2.412190  
P      -2.452524        0.304806        0.462813  
C      -2.466039        1.767225       -0.698213  
O      -3.613269        1.647492       -1.560549  
H      -2.578122        2.702220       -0.137823  
C      -3.346754        0.837646        1.956808  
C       1.532653        0.961085       -1.895567  
H      -4.280878        1.337608        1.689923  
H      -3.565632       -0.042861        2.565573  
H      -2.711647        1.509106        2.538595  
H       1.583494        1.751586       -2.648275  
H       2.525045        0.812169       -1.459523  
H       1.225313        0.018422       -2.357310  
C      -3.644505       -0.505887       -0.595167  
C      -4.116147        0.377204       -1.570335  
C      -5.079449       -0.005309       -2.500878  
H      -5.435152        0.694180       -3.248696  
C      -4.143265       -1.815246       -0.536736  
C      -5.102479       -2.222908       -1.467297  
H      -5.503411       -3.229423       -1.451306  
C      -5.553735       -1.311513       -2.427078  
H      -6.301632       -1.640096       -3.142933  
C       0.624351        3.177921       -0.311623  
C      -0.185907        3.890454       -1.228815  
C      -0.151905        5.268646       -1.370330  
C       1.520574        3.931346        0.473842  
C       1.560021        5.327678        0.340576  
H       2.254397        5.876485        0.967735  
C       0.738960        5.978263       -0.566052  
H      -0.804719        5.756925       -2.084843  
H       0.787589        7.059882       -0.646988  
Rh      -0.288757       -0.408691        0.829151  
C       4.787753       -1.358504       -0.766641  
C       3.883901       -1.099703        0.274235  
C       2.573839       -1.579286        0.211097  
C       2.163933       -2.319041       -0.915418  
C       3.069572       -2.558555       -1.944747  
C       4.389419       -2.085435       -1.883721  
O       6.036492       -0.851163       -0.595969  
H       4.227780       -0.532309        1.134457  
H       1.134324       -2.641833       -1.005481  
O       2.758482       -3.237646       -3.082060  
H       5.053356       -2.294606       -2.713859  
C       1.687455       -1.231356        1.331122  
H       2.133229       -0.514261        2.020587  
C       0.613719       -3.562110        1.713089  
H      -0.307090       -3.977218        2.128607  
H       0.646686       -3.797749        0.651730  
H       1.468153       -4.057670        2.187524  
N       0.464698       -1.762520        3.355041  
H       0.637893       -2.495037        4.030381  
C       0.709429       -2.080017        1.964066  
C       0.082975       -0.545430        3.789869  
O      -0.220258        0.362038        2.982723  
O      -3.643566       -2.589245        0.456323  
O       2.411328        3.452260        1.375050  
H      -0.829419       -1.815243        1.427657  
H      -0.377154       -1.115134       -0.549653  
C       0.021989       -0.315710        5.262249  
H      -0.956938        0.090680        5.523413  
H       0.208701       -1.218194        5.844647  
H       0.766635        0.436536        5.533758  
C       1.428013       -3.717090       -3.212645  
H       1.177928       -4.421877       -2.411066  
H       0.704683       -2.892169       -3.208390  
H       1.386362       -4.229556       -4.172617  
C       6.984566       -1.095578       -1.626382  
H       7.152990       -2.169736       -1.762808  
H       6.660593       -0.655666       -2.576236  
H       7.909225       -0.620293       -1.302392  
C       2.433292        2.068592        1.674138  
H       1.472934        1.733176        2.080229  
H       2.697057        1.470691        0.789613  
H       3.215145        1.936550        2.423007  
C      -4.109828       -3.933133        0.534909  
H      -5.189185       -3.965344        0.716032  
H      -3.874583       -4.485267       -0.381124  
H      -3.584553       -4.381748        1.376674  
