81
F:55-60;
P       0.218001        1.052801       -1.005330  
C      -1.356508        1.610667       -1.848294  
O      -1.099125        2.898041       -2.442815  
H      -1.624981        0.928628       -2.661701  
P      -2.485002        0.460027        0.502121  
C      -2.534761        1.727415       -0.874899  
O      -3.768737        1.544168       -1.594437  
H      -2.552488        2.739302       -0.456246  
C      -3.373714        1.244619        1.887216  
C       1.198265        0.240134       -2.307699  
H      -4.290420        1.726657        1.537812  
H      -3.628331        0.474204        2.618622  
H      -2.722741        1.980380        2.365233  
H       1.204182        0.839684       -3.221061  
H       2.223756        0.113559       -1.948213  
H       0.783039       -0.751052       -2.508605  
C      -3.721378       -0.485110       -0.389346  
C      -4.260442        0.279208       -1.428879  
C      -5.273304       -0.206637       -2.251454  
H      -5.674371        0.402344       -3.053736  
C      -4.211368       -1.777281       -0.149785  
C      -5.220420       -2.289477       -0.971479  
H      -5.612377       -3.287617       -0.814965  
C      -5.732667       -1.496299       -2.001963  
H      -6.517028       -1.906350       -2.631671  
C       0.753223        2.764482       -0.989909  
C      -0.066858        3.539147       -1.815029  
C       0.164594        4.897547       -2.014192  
C       1.840694        3.355240       -0.331969  
C       2.083308        4.721125       -0.506439  
H       2.911948        5.208960       -0.007044  
C       1.246475        5.463020       -1.345226  
H      -0.482373        5.481939       -2.658419  
H       1.448110        6.522558       -1.474027  
Rh      -0.296096       -0.156086        0.916429  
C       4.414936       -1.875359       -1.007048  
C       3.713801       -1.157216       -0.027289  
C       2.446195       -1.573676        0.383539  
C       1.878164       -2.724410       -0.197043  
C       2.586875       -3.428326       -1.166022  
C       3.860246       -3.012822       -1.584572  
O       5.635944       -1.376692       -1.337872  
H       4.172052       -0.268166        0.396198  
H       0.872422       -3.022049        0.070387  
O       2.112739       -4.542404       -1.787906  
H       4.369242       -3.586896       -2.349687  
C       1.759953       -0.738226        1.382185  
H       2.269882        0.204550        1.576035  
C       0.917850       -2.632833        2.939457  
H       0.119267       -2.802165        3.664356  
H       0.779448       -3.320450        2.108207  
H       1.877637       -2.873699        3.410492  
N       0.927232       -0.288657        3.611816  
H       1.284588       -0.643712        4.489033  
C       0.947683       -1.196744        2.483556  
C       0.559510        1.006482        3.528825  
O       0.041456        1.465850        2.488512  
O      -3.653975       -2.432218        0.896183  
O       2.592365        2.522691        0.428212  
H      -0.658910       -1.174525        2.152868  
H      -0.531761       -1.357114       -0.032407  
C       0.792814        1.873938        4.720730  
H      -0.079948        2.505891        4.888697  
H       1.014192        1.305924        5.624760  
H       1.639773        2.533941        4.513226  
C       0.827153       -5.005824       -1.401579  
H       0.802751       -5.269401       -0.337477  
H       0.054192       -4.254829       -1.605325  
H       0.635700       -5.894877       -2.000597  
C       6.366109       -2.062031       -2.346176  
H       6.588408       -3.092110       -2.045428  
H       5.817101       -2.071856       -3.294590  
H       7.297268       -1.510937       -2.469895  
C       3.657150        3.104025        1.173673  
H       4.415758        3.532678        0.510511  
H       3.283429        3.877310        1.853495  
H       4.097877        2.292199        1.751710  
C      -4.101529       -3.760003        1.152020  
H      -5.169786       -3.777815        1.391575  
H      -3.906545       -4.412141        0.294119  
H      -3.528875       -4.105032        2.011402  
