81
F:55-60;
P       0.453837        1.323804       -0.604309  
C      -1.097680        1.932890       -1.434221  
O      -0.821870        3.244439       -1.932596  
H      -1.342599        1.298874       -2.293561  
P      -2.361201        0.484407        0.619896  
C      -2.293744        1.987308       -0.482753  
O      -3.512073        2.041015       -1.246098  
H      -2.242514        2.905966        0.112313  
C      -3.126335        1.030867        2.179149  
C       1.492281        0.801502       -2.013933  
H      -4.013252        1.637121        1.980543  
H      -3.412414        0.148414        2.756179  
H      -2.399197        1.603733        2.758517  
H       1.589966        1.610516       -2.741799  
H       2.485904        0.512439       -1.656039  
H       1.039020       -0.075755       -2.484816  
C      -3.683912       -0.156528       -0.400944  
C      -4.133758        0.823847       -1.290599  
C      -5.186281        0.588076       -2.171129  
H      -5.521454        1.360891       -2.853384  
C      -4.298870       -1.416950       -0.380113  
C      -5.350098       -1.678065       -1.263301  
H      -5.842627       -2.643202       -1.275620  
C      -5.775051       -0.672468       -2.136631  
H      -6.595774       -0.887534       -2.814746  
C       0.934164        3.063707       -0.331091  
C       0.129380        3.870261       -1.172627  
C       0.281347        5.242625       -1.292141  
C       1.956306        3.711371        0.391801  
C       2.114374        5.101546        0.283124  
H       2.903405        5.568394        0.862792  
C       1.290932        5.847481       -0.545542  
H      -0.374162        5.806604       -1.945788  
H       1.433452        6.921990       -0.609663  
Rh      -0.257659       -0.439238        0.822311  
C       4.510095       -1.739847       -1.250648  
C       3.746306       -1.460277       -0.111435  
C       2.401455       -1.859906       -0.052161  
C       1.832608       -2.539335       -1.138725  
C       2.608984       -2.808958       -2.268705  
C       3.946763       -2.414696       -2.332485  
O       5.812772       -1.376791       -1.392982  
H       4.179343       -0.943212        0.738003  
H       0.780078       -2.791045       -1.126125  
O       2.129015       -3.433972       -3.377779  
H       4.535575       -2.617890       -3.220169  
C       1.656713       -1.472388        1.153485  
H       2.225776       -0.819415        1.815346  
C       0.380641       -3.692293        1.588575  
H      -0.530869       -4.021244        2.092324  
H       0.278997       -3.903832        0.526499  
H       1.223087       -4.283135        1.964799  
N       0.553537       -1.920538        3.260962  
H       0.699643       -2.680731        3.911801  
C       0.651663       -2.233542        1.851042  
C       0.327479       -0.681204        3.739303  
O       0.056785        0.267831        2.969396  
O      -3.810245       -2.291758        0.531269  
O       2.870696        3.128024        1.205095  
H      -0.886142       -1.799697        1.447231  
H      -0.528963       -1.097636       -0.556717  
C       0.404963       -0.478499        5.214880  
H       1.298102        0.107724        5.446074  
H      -0.458083        0.101194        5.545369  
H       0.451198       -1.414797        5.771615  
C       0.757128       -3.802105       -3.376738  
H       0.536816       -4.519679       -2.577776  
H       0.109136       -2.924207       -3.263090  
H       0.570853       -4.266949       -4.343649  
C       6.398428       -0.620838       -0.341799  
H       5.858199        0.320345       -0.180514  
H       6.423285       -1.190530        0.594103  
H       7.416837       -0.403954       -0.660258  
C       2.804197        1.736727        1.456880  
H       1.874388        1.468850        1.970975  
H       2.903118        1.153455        0.529626  
H       3.657397        1.507512        2.097390  
C      -4.386597       -3.594216        0.563907  
H      -5.450026       -3.548804        0.820473  
H      -4.261952       -4.103115       -0.397574  
H      -3.847107       -4.138184        1.337770  
