81
F:55-60;
P       0.330007        1.023476       -1.002333  
C      -1.171854        1.839552       -1.767651  
O      -0.763515        3.135545       -2.249276  
H      -1.519885        1.269253       -2.635028  
P      -2.400956        0.661476        0.527949  
C      -2.329454        2.004925       -0.776839  
O      -3.581747        1.993272       -1.490656  
H      -2.244314        2.985222       -0.295473  
C      -3.089671        1.485484        2.001327  
C       1.184477        0.212799       -2.391027  
H      -3.930630        2.128982        1.730932  
H      -3.430928        0.721203        2.703293  
H      -2.303576        2.073077        2.481229  
H       1.251699        0.887107       -3.248150  
H       2.192377       -0.068361       -2.071296  
H       0.647259       -0.697368       -2.669791  
C      -3.797165       -0.054144       -0.336265  
C      -4.252074        0.812936       -1.333137  
C      -5.362290        0.511063       -2.118564  
H      -5.699761        1.197607       -2.886665  
C      -4.471211       -1.261285       -0.100538  
C      -5.582514       -1.587733       -0.882927  
H      -6.120752       -2.515589       -0.728563  
C      -6.007306       -0.697191       -1.873236  
H      -6.873454       -0.961618       -2.472704  
C       1.077353        2.646549       -0.858435  
C       0.348788        3.586888       -1.592328  
C       0.745671        4.919090       -1.674140  
C       2.239570        3.034750       -0.178701  
C       2.646116        4.371270       -0.232110  
H       3.533679        4.707363        0.291123  
C       1.896205        5.283937       -0.980295  
H       0.169006        5.635712       -2.247856  
H       2.224334        6.318676       -1.015284  
Rh      -0.309313       -0.264701        0.831248  
C       4.206550       -2.196804       -1.270446  
C       3.571221       -1.528541       -0.218422  
C       2.272487       -1.897096        0.165237  
C       1.617959       -2.935289       -0.513569  
C       2.270210       -3.596845       -1.557554  
C       3.562986       -3.235466       -1.941280  
O       5.454860       -1.887213       -1.715271  
H       4.060304       -0.712361        0.300734  
H       0.591941       -3.177221       -0.267617  
O       1.705399       -4.604187       -2.278200  
H       4.053450       -3.746351       -2.762440  
C       1.664294       -1.105264        1.244475  
H       2.263096       -0.239646        1.525923  
C       0.605682       -3.036091        2.615666  
H      -0.199141       -3.180841        3.339028  
H       0.374190       -3.619058        1.727197  
H       1.535806       -3.433227        3.037677  
N       0.859818       -0.775948        3.503453  
H       1.131961       -1.251367        4.353694  
C       0.796721       -1.575720        2.297137  
C       0.644857        0.554963        3.535317  
O       0.212269        1.164468        2.533237  
O      -3.980382       -2.023267        0.905926  
O       2.896437        2.045976        0.477695  
H      -0.795059       -1.345691        1.965822  
H      -0.688899       -1.340241       -0.217862  
C       0.937440        1.278308        4.807425  
H       1.793733        1.938496        4.645376  
H       0.087619        1.909549        5.071366  
H       1.167539        0.610239        5.637550  
C       0.376992       -4.979850       -1.944985  
H       0.311596       -5.341792       -0.911986  
H      -0.320419       -4.144082       -2.080040  
H       0.112876       -5.785598       -2.628411  
C       6.112041       -0.789672       -1.098027  
H       5.534203        0.135589       -1.214675  
H       6.285618       -0.975447       -0.031562  
H       7.068855       -0.687356       -1.607896  
C       4.028044        2.422190        1.255704  
H       4.824284        2.832467        0.625548  
H       3.750632        3.154022        2.021920  
H       4.380241        1.509474        1.736800  
C      -4.643079       -3.255132        1.175115  
H      -5.685703       -3.085516        1.463299  
H      -4.606696       -3.920413        0.306095  
H      -4.103339       -3.708243        2.004959  
