65
mapping.S.ts4 optimized geometry
C      -2.549925        2.722246        2.099306  
C      -3.001279        2.552254        0.794571  
C      -3.143244        1.263366        0.243959  
C      -2.841186        0.123126        1.022299  
C      -2.395005        0.313955        2.334098  
C      -2.244902        1.595172        2.870889  
H      -3.814292        2.012709       -1.682040  
H      -2.432562        3.719627        2.512867  
H      -3.246084        3.414904        0.180317  
C      -3.598583        1.104255       -1.122240  
C      -2.976478       -1.285564        0.452420  
H      -2.159494       -0.548221        2.951226  
H      -1.889873        1.712821        3.891177  
C      -3.511144       -1.349340       -1.001887  
C      -3.766141       -0.103093       -1.715237  
O      -3.705917       -2.444120       -1.534962  
H       0.723851       -1.247150        0.336414  
C      -1.572305       -1.975833        0.452002  
C      -0.545166       -1.259470       -0.407625  
H      -1.247496       -2.015208        1.497869  
H      -1.693573       -3.005533        0.107536  
H      -0.714860       -0.195162       -0.549370  
N      -0.178884       -1.853171       -1.629065  
O       0.318337       -1.098539       -2.539378  
O      -0.224537       -3.089261       -1.795537  
C      -3.932048       -2.121156        1.341026  
H      -4.112404       -0.186145       -2.741935  
H      -3.522140       -2.208885        2.351887  
H      -4.916875       -1.645307        1.404070  
H      -4.041932       -3.120489        0.910309  
C       1.148157        1.923280       -0.891603  
N       0.086198        1.968614       -1.733665  
N       1.822780        0.745416       -0.910454  
H       1.498519        0.043185       -1.579661  
H      -0.099559        1.147615       -2.298644  
C      -0.735723        3.146203       -1.968057  
C       3.023116        0.433182       -0.157402  
C       2.985568       -1.020187        0.354690  
C       4.288771        0.661703       -1.006564  
H       3.062557        1.114260        0.696941  
C       4.254474       -1.320635        1.171231  
C       5.560495        0.355810       -0.207037  
H       4.239454        0.016089       -1.894388  
H       4.275911        1.702058       -1.347851  
C       5.519509       -1.079133        0.331518  
H       4.241970       -2.357170        1.518946  
H       4.275514       -0.670419        2.054953  
H       6.445574        0.504306       -0.836423  
H       5.635123        1.058146        0.635064  
H       6.403556       -1.289937        0.944028  
H       5.530518       -1.784593       -0.511092  
H       2.951457       -1.695764       -0.509137  
N       1.710824       -1.320992        1.113537  
C       1.421884       -0.380055        2.226501  
C       1.660131       -2.735207        1.573475  
H       0.490626       -0.695439        2.700888  
H       2.231912       -0.396977        2.961661  
H       1.295572        0.626885        1.824345  
H       1.914081       -3.386239        0.733963  
H       2.353524       -2.899739        2.402184  
H       0.642277       -2.948666        1.902188  
H      -1.521565        2.862066       -2.672332  
H      -1.189089        3.493307       -1.035051  
H      -0.142575        3.965400       -2.392883  
S       1.565564        3.236918        0.116658  
