65
mapping.S.ts5 optimized geometry
C       4.830383       -2.326015       -0.357298  
C       4.074099       -1.877757       -1.436595  
C       3.360158       -0.666583       -1.359107  
C       3.390688        0.103065       -0.169525  
C       4.157069       -0.362365        0.902686  
C       4.877126       -1.557894        0.811015  
H       2.601024       -0.822001       -3.391248  
H       5.379204       -3.261151       -0.422804  
H       4.028775       -2.455259       -2.356832  
C       2.623854       -0.183685       -2.509622  
C       2.492028        1.325441       -0.035994  
H       4.193786        0.202772        1.827560  
H       5.468818       -1.892301        1.659055  
C       2.088034        1.937261       -1.394263  
C       2.026598        1.033160       -2.541232  
O       1.742161        3.118679       -1.491812  
H      -1.136263        1.351122        0.108589  
C       1.137702        0.730229        0.553340  
C       0.064935        1.760598        0.838358  
H       0.787789       -0.042625       -0.139414  
H       1.408149        0.223902        1.481585  
H       0.222267        2.742487        0.397705  
N      -0.348220        1.927238        2.176969  
O      -0.840476        3.022157        2.537099  
O      -0.313004        0.941361        2.983158  
C       3.046242        2.396114        0.915437  
H       1.548364        1.407224       -3.442190  
H       3.093138        2.013886        1.939241  
H       4.050291        2.703979        0.604974  
H       2.394471        3.271744        0.906863  
C      -0.838923       -1.841708        0.835153  
N       0.154174       -2.041689        1.742980  
N      -1.746452       -0.902075        1.215702  
H      -1.484514       -0.342976        2.023590  
H       0.195597       -1.392945        2.519277  
C       1.397621       -2.746789        1.448274  
C      -3.050463       -0.573802        0.626713  
C      -2.929335        0.079047       -0.767409  
C      -3.991021       -1.797648        0.624839  
H      -3.478006        0.169001        1.309572  
C      -4.303046        0.310324       -1.418991  
C      -5.340875       -1.507753       -0.039841  
H      -3.495383       -2.611012        0.087721  
H      -4.122405       -2.115196        1.665381  
C      -5.124646       -0.984515       -1.465406  
H      -4.163214        0.719827       -2.425585  
H      -4.868550        1.048516       -0.837889  
H      -5.946004       -2.421873       -0.048992  
H      -5.894938       -0.753974        0.538556  
H      -6.083847       -0.787680       -1.957992  
H      -4.595543       -1.741859       -2.059573  
H      -2.345965       -0.601809       -1.390446  
N      -2.121100        1.356469       -0.695910  
C      -2.870708        2.539617       -0.190336  
C      -1.484104        1.668354       -2.000715  
H      -2.139522        3.314944        0.046286  
H      -3.573777        2.904084       -0.943849  
H      -3.405861        2.266391        0.720398  
H      -0.890909        0.806020       -2.312344  
H      -2.246009        1.892738       -2.753470  
H      -0.828882        2.532634       -1.869050  
H       1.196628       -3.796452        1.215755  
H       1.924773       -2.294145        0.600228  
H       2.026766       -2.684572        2.339720  
S      -0.868689       -2.708174       -0.635188  
