62
mapping.S.ts1 optimized geometry
C      -6.190697       -0.365568       -1.090243  
C      -4.986441        0.213439       -1.467812  
C      -3.769566       -0.228205       -0.903771  
C      -3.780962       -1.271361        0.066134  
C      -5.012831       -1.843909        0.437871  
C      -6.200548       -1.402656       -0.135949  
H      -2.503528        1.139028       -2.017153  
H      -7.123686       -0.022633       -1.529335  
H      -4.965214        1.013481       -2.204724  
C      -2.501286        0.319855       -1.300053  
C      -2.536872       -1.616218        0.721958  
H      -5.024775       -2.636069        1.183500  
H      -7.143298       -1.859074        0.155291  
C      -1.268008       -1.259308        0.113144  
C      -1.310785       -0.188642       -0.859389  
O      -0.179259       -1.817641        0.474438  
H       1.145372       -1.711727       -0.438510  
C      -2.560341       -0.247565        2.284761  
C      -2.811140        1.070086        1.884696  
H      -1.570779       -0.482754        2.664976  
H      -3.391391       -0.758782        2.761831  
H      -3.801141        1.459714        1.695020  
N      -1.797634        1.955418        1.599151  
O      -2.070854        3.119550        1.193394  
O      -0.577337        1.603339        1.764607  
H      -2.527823       -2.513235        1.337857  
H      -0.371768        0.209541       -1.226670  
C       1.963244        1.848168       -0.541869  
N       0.989040        2.775027       -0.428530  
N       1.738058        0.715048        0.194996  
H       0.875804        0.720709        0.732821  
H       0.294660        2.642541        0.308941  
C       0.916521        4.003972       -1.203063  
C       2.726466       -0.242970        0.704236  
C       3.234197       -1.252975       -0.351732  
C       3.896808        0.431142        1.443770  
H       2.162979       -0.832958        1.435463  
C       4.161171       -2.282356        0.306745  
C       4.835969       -0.605867        2.068635  
H       4.450396        1.054068        0.734645  
H       3.472688        1.090472        2.209304  
C       5.341345       -1.578723        0.996628  
H       4.532025       -2.986447       -0.443682  
H       3.604464       -2.854670        1.060025  
H       5.677754       -0.099190        2.554688  
H       4.300897       -1.172086        2.844586  
H       5.999147       -2.336729        1.436474  
H       5.926772       -1.028442        0.247686  
H       3.780218       -0.716312       -1.130344  
N       2.010269       -1.889913       -1.049863  
C       2.042295       -3.377683       -1.219515  
C       1.752005       -1.250730       -2.379043  
H       1.097953       -3.665453       -1.685285  
H       2.879458       -3.656531       -1.861447  
H       2.127734       -3.852072       -0.243346  
H       1.758034       -0.168833       -2.258636  
H       2.547346       -1.550034       -3.066026  
H       0.783487       -1.600563       -2.742215  
H       1.761693        4.667011       -0.979787  
H       0.926971        3.788134       -2.277408  
H      -0.019439        4.501258       -0.936168  
S       3.295950        2.053502       -1.590561  
