62
mapping.S.ts2 optimized geometry
C      -6.711675        0.597000       -0.772466  
C      -5.544570        1.342318       -0.877614  
C      -4.278688        0.724597       -0.771950  
C      -4.201886       -0.685706       -0.547844  
C      -5.402397       -1.423548       -0.451740  
C      -6.636707       -0.795191       -0.562649  
H      -3.130559        2.537891       -1.106727  
H      -7.680185        1.083020       -0.855524  
H      -5.590774        2.416015       -1.048317  
C      -3.056793        1.467516       -0.920254  
C      -2.910762       -1.302130       -0.368845  
H      -5.348541       -2.497716       -0.286229  
H      -7.550185       -1.379955       -0.486810  
C      -1.694743       -0.557330       -0.626941  
C      -1.830347        0.869986       -0.852923  
O      -0.566682       -1.132728       -0.591949  
H       1.197699       -0.939351       -0.795093  
C      -2.753157       -1.444940        1.783601  
C      -1.448886       -1.722127        2.174439  
H      -3.148236       -0.452918        1.966850  
H      -3.464661       -2.263451        1.799245  
H      -1.012052       -2.710871        2.184164  
N      -0.552649       -0.709814        2.447506  
O       0.657114       -1.005608        2.725680  
O      -0.936235        0.500544        2.443944  
H      -2.843607       -2.381372       -0.477336  
H      -0.917455        1.438504       -0.996051  
C       1.655389        1.872709        0.293280  
N       0.587542        2.405717        0.926384  
N       2.083080        0.692442        0.829737  
H       1.561415        0.318923        1.625165  
H       0.099659        1.812024        1.601942  
C      -0.101493        3.614891        0.504176  
C       3.305356       -0.057723        0.541782  
C       3.307609       -0.682694       -0.866998  
C       4.597287        0.747631        0.791931  
H       3.297543       -0.876024        1.270115  
C       4.568958       -1.512936       -1.119407  
C       5.849358       -0.096640        0.524497  
H       4.596547        1.625027        0.139416  
H       4.572956        1.099395        1.829194  
C       5.825472       -0.654646       -0.904383  
H       4.554695       -1.918923       -2.135908  
H       4.604994       -2.357592       -0.420807  
H       6.745407        0.514592        0.682443  
H       5.895075       -0.934222        1.235892  
H       6.714350       -1.265415       -1.097869  
H       5.832085        0.175396       -1.623686  
H       3.238975        0.131058       -1.592552  
N       2.034682       -1.498443       -1.086167  
C       1.944627       -2.755199       -0.271374  
C       1.806918       -1.794583       -2.537109  
H       0.956424       -3.177115       -0.449512  
H       2.727487       -3.444897       -0.585680  
H       2.042090       -2.498286        0.783102  
H       1.862421       -0.854832       -3.089054  
H       2.568330       -2.492578       -2.886497  
H       0.811576       -2.230328       -2.627910  
H       0.556043        4.487308        0.587672  
H      -0.441380        3.544564       -0.536489  
H      -0.965548        3.743564        1.161205  
S       2.351378        2.632128       -1.073701  
