62
mapping.S.ts3 optimized geometry
C      -6.385206       -0.883756       -0.182644  
C      -5.607977        0.228904       -0.478507  
C      -4.208420        0.111240       -0.619411  
C      -3.589422       -1.160190       -0.448569  
C      -4.394125       -2.275819       -0.145882  
C      -5.773069       -2.142456       -0.020886  
H      -3.859373        2.203226       -1.083945  
H      -7.462527       -0.786162       -0.078921  
H      -6.069557        1.205267       -0.609466  
C      -3.378966        1.232268       -0.974507  
C      -2.144276       -1.232944       -0.475296  
H      -3.922836       -3.247029       -0.009538  
H      -6.382118       -3.014367        0.204552  
C      -1.366512       -0.169973       -1.089009  
C      -2.044489        1.103182       -1.237363  
O      -0.153972       -0.310618       -1.437652  
H       1.142884       -1.113661       -0.846278  
C      -1.737894       -0.848601        1.547382  
C      -2.398766        0.267025        2.064800  
H      -0.659692       -0.795635        1.449835  
H      -2.145867       -1.814517        1.829303  
H      -3.429469        0.250133        2.389120  
N      -1.819398        1.517720        2.119303  
O      -2.483386        2.491615        2.561034  
O      -0.604197        1.680195        1.749354  
H      -1.703907       -2.227248       -0.510613  
H      -1.456591        1.948836       -1.578030  
C       1.989879        1.798841       -0.511924  
N       0.974228        2.689565       -0.483262  
N       1.931492        0.861172        0.479228  
H       1.098569        0.887889        1.060205  
H       0.244805        2.553253        0.213785  
C       0.709243        3.672498       -1.522155  
C       2.930008       -0.134756        0.867599  
C       3.195084       -1.200667       -0.217792  
C       4.257183        0.501059        1.337608  
H       2.492100       -0.641289        1.735038  
C       4.209449       -2.245638        0.258440  
C       5.276433       -0.555033        1.784320  
H       4.669324        1.085824        0.510219  
H       4.021220        1.192008        2.154162  
C       5.527490       -1.566787        0.660085  
H       4.385211       -2.984106       -0.530538  
H       3.812316       -2.776775        1.132434  
H       6.211547       -0.062059        2.074233  
H       4.899570       -1.087340        2.669637  
H       6.245494       -2.331240        0.977195  
H       5.954780       -1.051256       -0.210402  
H       3.572024       -0.683999       -1.102541  
N       1.892113       -1.851417       -0.681165  
C       1.298496       -2.813845        0.298170  
C       2.050610       -2.502079       -2.021279  
H       0.295286       -3.058938       -0.051664  
H       1.912002       -3.713709        0.342226  
H       1.247339       -2.344180        1.280540  
H       2.423957       -1.750904       -2.718414  
H       2.747583       -3.336957       -1.939274  
H       1.067325       -2.852770       -2.338462  
H       1.556026        4.356944       -1.638995  
H       0.521769        3.189297       -2.490033  
H      -0.176001        4.238309       -1.218456  
S       3.208857        1.878719       -1.707913  
