79
S.ts3 optimized geometry
C       1.405032        6.181960       -1.309810  
C       1.841548        4.873465       -1.150011  
C       0.919721        3.804071       -1.142460  
C      -0.473068        4.072986       -1.288799  
C      -0.894781        5.408624       -1.452020  
C       0.029551        6.446865       -1.467729  
H       2.405971        2.237275       -0.924115  
H       2.120144        7.000027       -1.317489  
H       2.900565        4.654214       -1.032828  
C       1.341864        2.435055       -1.035907  
C      -1.407338        2.980745       -1.159787  
H      -1.956530        5.618404       -1.564074  
H      -0.310919        7.470706       -1.600946  
C      -0.962008        1.606974       -1.247830  
C       0.464376        1.391371       -1.127495  
O      -1.755928        0.618083       -1.383401  
H      -3.275981        0.373925       -1.001932  
C      -1.725115        3.100554        0.998996  
C      -0.547679        3.089065        1.732009  
H      -2.370757        2.233045        1.039669  
H      -2.203021        4.063910        0.860488  
H       0.058741        3.966503        1.906017  
N      -0.003364        1.929986        2.243758  
O       1.075279        1.977253        2.884738  
O      -0.610063        0.807168        2.083997  
H      -2.444563        3.177446       -1.419760  
H       0.817490        0.367004       -1.121844  
C      -0.438474       -2.153876        0.233459  
C      -1.839411       -1.990206        0.371459  
C      -0.605638       -3.375346       -0.597358  
C      -2.110527       -3.190638       -0.456976  
N       0.544651       -1.389125        0.748965  
N      -2.565934       -1.064131        0.996242  
H       0.232326       -0.574920        1.300167  
H      -2.071237       -0.273653        1.402904  
C       1.923680       -1.446310        0.520380  
C       2.709050       -0.430115        1.091466  
C       2.536717       -2.438762       -0.257430  
C       4.084104       -0.408131        0.871697  
H       2.240369        0.335672        1.703100  
C       3.917724       -2.396323       -0.455600  
H       1.943152       -3.231449       -0.701857  
C       4.708985       -1.385261        0.092784  
H       5.777055       -1.360350       -0.077428  
C      -4.026740       -1.098708        1.134419  
C      -4.757732       -0.993317       -0.222511  
C      -4.474639       -2.370564        1.886244  
H      -4.284627       -0.229994        1.747946  
C      -6.279120       -1.070207       -0.042608  
H      -4.422397       -1.825640       -0.845790  
C      -5.997029       -2.446656        2.044001  
H      -4.127081       -3.240935        1.320393  
H      -3.972761       -2.375783        2.859493  
C      -6.676184       -2.370706        0.671557  
H      -6.772364       -1.007402       -1.017476  
H      -6.622564       -0.222751        0.562474  
H      -6.264344       -3.377767        2.556001  
H      -6.349220       -1.614935        2.670554  
H      -7.766189       -2.405545        0.774026  
H      -6.371448       -3.231562        0.062451  
O       0.114390       -4.186397       -1.167356  
O      -3.105406       -3.775030       -0.872521  
C       4.875755        0.738035        1.459308  
C       4.532656       -3.470011       -1.325908  
F       4.581960        0.941808        2.773593  
F       6.218962        0.554316        1.375248  
F       4.597816        1.914395        0.815035  
F       5.891411       -3.451549       -1.313340  
F       4.148308       -4.719686       -0.938461  
F       4.147876       -3.335086       -2.630882  
N      -4.345584        0.262475       -0.989717  
C      -4.692965        0.154390       -2.444498  
C      -4.886572        1.535962       -0.422840  
H      -4.251920        1.012831       -2.953484  
H      -4.261098       -0.770596       -2.829307  
H      -5.776859        0.155124       -2.563433  
H      -4.654190        1.590243        0.640630  
H      -4.406909        2.361712       -0.949032  
H      -5.964865        1.574502       -0.575848  
