81
ts6 TS lib
C       3.466605        1.586261        0.699622  
C       3.183705        2.364047       -0.415751  
C       2.033322        3.172175       -0.461304  
C       1.127647        3.169525        0.627173  
C       1.431494        2.371765        1.734186  
C       2.599304        1.593136        1.800555  
H       2.515434        3.979111       -2.419145  
H       4.366656        0.979101        0.725242  
H       3.859894        2.365458       -1.267083  
C       1.816922        4.054100       -1.587290  
C      -0.150542        4.005443        0.561756  
H       0.767262        2.360113        2.592302  
H       2.845859        1.043558        2.704357  
C      -0.080171        5.156382       -0.489579  
C       0.838647        4.992389       -1.611383  
O      -0.848877        6.116139       -0.420650  
H      -2.274798        1.184621        0.003714  
C      -1.322215        3.134207       -0.041317  
C      -1.642019        1.822840        0.648619  
H      -1.055653        2.862436       -1.068192  
H      -2.218030        3.760459       -0.087171  
H      -0.753939        1.254496        0.918619  
N      -2.465255        1.923600        1.918236  
O      -2.412454        0.939412        2.672622  
O      -3.177074        2.896415        2.114983  
C      -0.534065        4.591968        1.932651  
H       0.743904        5.694368       -2.435282  
H       0.285488        5.211195        2.312544  
H      -1.429187        5.207624        1.830145  
H      -0.738715        3.810712        2.666428  
C      -1.337054       -1.845835        0.077720  
N      -0.186636       -1.241406        0.591810  
N      -2.441467       -1.462563        0.745910  
H      -2.320631       -0.726416        1.434020  
H      -0.235009       -0.953100        1.560216  
C       1.120719       -1.432667        0.107513  
C       2.058577       -2.094893        0.935811  
C       1.561764       -0.941253       -1.141581  
C       3.388711       -2.238122        0.548567  
C       1.601252       -2.738567        2.235878  
C       2.889467       -1.128327       -1.530542  
C       0.715122       -0.168497       -2.149617  
C       3.800802       -1.762267       -0.692669  
C       5.249813       -1.858844       -1.109733  
C      -3.854204       -1.763433        0.446735  
C      -4.286895       -1.213595       -0.934417  
C      -4.182957       -3.256469        0.624271  
H      -4.408119       -1.211882        1.214764  
C      -5.767832       -1.554995       -1.203701  
C      -5.663993       -3.538266        0.339408  
H      -3.564746       -3.838716       -0.064561  
H      -3.916537       -3.551781        1.645968  
C      -6.040258       -3.059673       -1.069889  
H      -6.038817       -1.194658       -2.203181  
H      -6.401856       -1.023096       -0.482401  
H      -5.859821       -4.611558        0.449947  
H      -6.291145       -3.014121        1.075686  
H      -7.097158       -3.267502       -1.277502  
H      -5.444804       -3.611132       -1.811178  
H       3.220068       -0.748472       -2.489907  
H       4.094247       -2.739833        1.197986  
H      -3.678652       -1.731296       -1.681549  
N      -3.954873        0.225093       -1.053249  
C      -4.896465        1.122471       -0.377502  
C      -3.767983        0.633032       -2.446689  
H      -4.472430        2.132433       -0.361114  
H      -5.879136        1.174483       -0.878588  
H      -5.055417        0.797559        0.655536  
H      -4.697178        0.559817       -3.042380  
H      -3.430878        1.676082       -2.473324  
H      -2.999854        0.004701       -2.908730  
S      -1.246457       -2.930453       -1.207316  
F       5.909565       -2.860228       -0.474374  
F       5.920604       -0.699866       -0.823910  
F       5.385476       -2.066569       -2.445938  
F       0.410363       -0.932021       -3.233025  
F       1.415578        0.901720       -2.635191  
F      -0.439163        0.330637       -1.660473  
F       1.074895       -1.825117        3.115323  
F       2.609458       -3.357191        2.893129  
F       0.633891       -3.667725        2.020749  
