78
mapping.R.ts1 optimized geometry
C      -3.000415        6.135652        0.968735  
C      -1.613278        6.047437        0.924452  
C      -0.979140        4.810873        0.688935  
C      -1.750444        3.637806        0.487833  
C      -3.145898        3.749919        0.530882  
C      -3.765989        4.978618        0.774347  
H       1.024354        5.645070        0.810618  
H      -3.484871        7.090497        1.152737  
H      -0.998131        6.931754        1.074689  
C       0.461381        4.722192        0.682331  
C      -1.073931        2.337407        0.107374  
H      -3.764943        2.873195        0.374076  
H      -4.850968        5.031858        0.810871  
C       0.409326        2.277621        0.466498  
C       1.120735        3.540316        0.570750  
O       0.985244        1.181648        0.603428  
H       2.765813        0.837821        0.521839  
C      -1.087880        2.347880       -1.534559  
C      -0.569303        1.133729       -2.182866  
H      -0.544075        3.238509       -1.859686  
H      -2.149828        2.462314       -1.776342  
H      -1.187912        0.260985       -2.327230  
N       0.690050        1.021081       -2.609318  
O       1.064933       -0.113607       -3.181331  
O       1.548398        1.958886       -2.495195  
C      -1.820825        1.087651        0.591277  
H       2.201161        3.513310        0.631952  
H      -1.251972        0.200142        0.320719  
H      -1.945958        1.109669        1.679051  
H      -2.806496        1.016527        0.123608  
C       1.733782       -1.815814       -0.376198  
N       0.504759       -1.868821       -1.036368  
N       2.671974       -1.123680       -1.094559  
H       2.368128       -0.692076       -1.974674  
H       0.488072       -1.384826       -1.946729  
C      -0.732002       -2.189336       -0.498604  
C      -1.838000       -2.151697       -1.372070  
C      -0.957481       -2.498874        0.855494  
C      -3.126526       -2.367519       -0.894869  
H      -1.675595       -1.939006       -2.423432  
C      -2.258718       -2.720715        1.307747  
H      -0.122465       -2.541995        1.538911  
C      -3.360549       -2.646313        0.454657  
H      -4.365200       -2.809573        0.823042  
C       4.095090       -1.151523       -0.790394  
C       4.417657       -0.486644        0.561934  
C       4.690005       -2.575345       -0.839236  
H       4.576484       -0.567294       -1.581012  
C       5.924366       -0.477799        0.842501  
C       6.196560       -2.566164       -0.555536  
H       4.175082       -3.193291       -0.096904  
H       4.476702       -2.990185       -1.830232  
C       6.479258       -1.912209        0.801910  
H       6.128166       -0.032943        1.820656  
H       6.446061        0.119640        0.085137  
H       6.584687       -3.591002       -0.574353  
H       6.717827       -2.003612       -1.343274  
H       7.555605       -1.883032        1.004235  
H       6.010224       -2.504994        1.598818  
C      -2.469012       -2.953306        2.786203  
C      -4.295741       -2.208428       -1.837293  
F      -2.491283       -1.768911        3.475841  
F      -1.477899       -3.702914        3.343608  
F      -3.643730       -3.582384        3.061223  
F      -4.731922       -0.908469       -1.866614  
F      -3.986384       -2.538951       -3.120743  
F      -5.366804       -2.966266       -1.477565  
H       3.895171       -1.038341        1.345594  
N       3.804894        0.919388        0.629904  
C       4.258995        1.832725       -0.474048  
C       4.008122        1.538151        1.980424  
H       5.344832        1.793152       -0.549980  
H       3.771352        1.524149       -1.398727  
H       3.948190        2.847737       -0.230519  
H       5.047299        1.849371        2.083544  
H       3.343790        2.398677        2.057039  
H       3.749046        0.798873        2.740395  
O       1.952672       -2.343621        0.719918  
