78
mapping.R.ts5 optimized geometry
C       4.466100       -1.883287       -1.380587  
C       3.547286       -0.946121       -1.838460  
C       2.162391       -1.176900       -1.716829  
C       1.689404       -2.378313       -1.133058  
C       2.631798       -3.310803       -0.685193  
C       4.003235       -3.069585       -0.799749  
H       1.634636        0.717815       -2.634018  
H       5.532120       -1.693677       -1.466411  
H       3.884239       -0.016698       -2.288752  
C       1.225554       -0.183878       -2.185495  
C       0.199972       -2.646267       -0.971381  
H       2.296044       -4.239848       -0.235116  
H       4.710377       -3.808537       -0.432619  
C      -0.701405       -1.544000       -1.539915  
C      -0.120306       -0.337188       -2.079702  
O      -1.936097       -1.713018       -1.530040  
H      -3.341450       -0.672498       -0.936012  
C      -0.093895       -2.769043        0.605337  
C      -1.517020       -2.943717        0.973668  
H       0.320977       -1.896303        1.108088  
H       0.500440       -3.637481        0.918729  
H      -2.118321       -3.736997        0.552955  
N      -2.191928       -2.090691        1.738449  
O      -3.462833       -2.211979        1.921625  
O      -1.586943       -1.087925        2.354578  
C      -0.184757       -3.987501       -1.644134  
H      -0.805248        0.430244       -2.427378  
H      -1.256607       -4.164958       -1.526056  
H       0.055797       -3.962367       -2.712639  
H       0.367700       -4.809658       -1.179417  
C      -1.399901        1.548252        0.295492  
N      -0.319956        0.892049        0.887676  
N      -2.586624        0.947279        0.640102  
H      -2.550310        0.267518        1.407789  
H      -0.582547        0.073923        1.464552  
C       1.032721        1.152814        0.767453  
C       1.584829        2.135235       -0.074124  
C       1.906718        0.345212        1.524413  
C       2.971741        2.279087       -0.150221  
H       0.929476        2.762261       -0.660626  
C       3.283285        0.498518        1.419283  
H       1.492502       -0.404114        2.190425  
C       3.839663        1.467779        0.579580  
H       4.912705        1.579583        0.495654  
C      -3.885026        1.523448        0.341156  
C      -4.874298        0.381558        0.042102  
C      -4.417178        2.363671        1.520670  
H      -3.775767        2.170403       -0.534215  
C      -6.286504        0.901826       -0.232944  
C      -5.838122        2.883261        1.266163  
H      -4.410875        1.730607        2.418252  
H      -3.715748        3.187179        1.690878  
C      -6.791055        1.716810        0.969174  
H      -6.964328        0.066980       -0.437932  
H      -6.274053        1.550497       -1.116876  
H      -6.187344        3.451033        2.136053  
H      -5.829380        3.570539        0.408545  
H      -7.800758        2.084815        0.756645  
H      -6.856254        1.063868        1.849899  
C       4.185680       -0.360203        2.273649  
C       3.528657        3.281394       -1.132899  
F       3.661181       -1.592878        2.513794  
F       4.404818        0.212960        3.498668  
F       5.410828       -0.550562        1.713224  
F       3.526193        2.774937       -2.410555  
F       2.799760        4.429871       -1.177816  
F       4.812921        3.634576       -0.862764  
H      -4.877395       -0.290018        0.907391  
N      -4.352927       -0.494959       -1.093689  
C      -4.429967        0.128487       -2.452835  
C      -4.988924       -1.854436       -1.084536  
H      -3.850069       -0.503339       -3.126147  
H      -5.472924        0.172818       -2.765993  
H      -3.995351        1.127085       -2.410812  
H      -6.058313       -1.744045       -1.267645  
H      -4.520431       -2.441443       -1.874885  
H      -4.787971       -2.299352       -0.107711  
O      -1.310490        2.520625       -0.458637  
