117
F:55-60;
P      -1.948468        1.468046        0.447144  
C      -1.525279        3.162312       -0.229966  
O      -2.737509        3.839442       -0.596033  
H      -1.052751        3.752501        0.565734  
P       0.739017        1.820706       -1.182053  
C      -0.575476        3.125568       -1.426065  
O       0.103461        4.391336       -1.511932  
H      -1.127985        2.979547       -2.358386  
C       1.501194        1.648613       -2.831190  
C      -1.789457        1.708227        2.246790  
H       1.764469        2.624864       -3.246733  
H       2.402704        1.034944       -2.750296  
H       0.788226        1.143213       -3.488518  
H      -2.462405        2.486411        2.615731  
H      -1.987516        0.771551        2.770609  
H      -0.750983        1.994231        2.441082  
C       1.724636        3.103740       -0.352132  
C       1.212423        4.365138       -0.711120  
C       1.805358        5.548852       -0.290026  
H       1.383962        6.504096       -0.584757  
C       2.865669        3.023953        0.455995  
C       3.450005        4.218654        0.896838  
H       4.329919        4.165762        1.532101  
C       2.931140        5.457624        0.523205  
H       3.408337        6.367264        0.875991  
C      -3.668157        1.722537       -0.055999  
C      -3.822077        3.016591       -0.576018  
C      -5.047497        3.473173       -1.054959  
C      -4.766071        0.844020       -0.033452  
C      -5.993788        1.302035       -0.519930  
H      -6.850777        0.634438       -0.499829  
C      -6.127830        2.599631       -1.019198  
H      -5.136686        4.481008       -1.446164  
H      -7.092551        2.933492       -1.389664  
Rh      -0.514906       -0.088853       -0.535705  
C       3.236906       -3.113091        0.886714  
C       2.079252       -2.478021        0.448197  
C       1.950467       -2.133090       -0.909425  
C       3.013103       -2.370196       -1.782745  
C       4.175484       -3.006887       -1.324416  
C       4.293932       -3.391529        0.006989  
O       3.441545       -3.499586        2.177024  
H       1.286135       -2.226172        1.142904  
H       2.939427       -2.107145       -2.834722  
O       5.129645       -3.229089       -2.268202  
H       5.177334       -3.886392        0.395072  
C       0.702761       -1.618298       -1.498690  
H       0.829315       -1.259663       -2.521022  
C      -0.769954       -3.500385       -0.491364  
H      -0.317000       -4.317924       -1.064007  
H      -0.283558       -3.468452        0.480317  
H      -1.828899       -3.720592       -0.339682  
N      -1.491285       -2.159300       -2.389042  
H      -1.852098       -3.042657       -2.726906  
C      -0.592663       -2.214238       -1.257252  
C      -1.798067       -1.032013       -3.058744  
O      -1.492067        0.091824       -2.600067  
C       3.515468        1.740088        0.827824  
C      -4.621733       -0.529955        0.509474  
H      -1.482730       -1.354622       -0.172089  
H       0.161395       -0.275942        0.845822  
C      -2.490609       -1.159889       -4.373065  
H      -2.823356       -2.176761       -4.582502  
H      -3.342763       -0.479137       -4.410136  
H      -1.794659       -0.854286       -5.159438  
C       6.299276       -3.921710       -1.861137  
H       6.845837       -3.366322       -1.089381  
H       6.057838       -4.920791       -1.479981  
H       6.922170       -4.010275       -2.750122  
C       2.319810       -3.452685        3.049054  
H       1.972901       -2.424455        3.205027  
H       1.496096       -4.062065        2.658073  
H       2.660917       -3.862155        3.999643  
C      -4.486830       -0.714010        1.903338  
C      -4.637191       -1.642911       -0.359738  
C      -4.193772       -3.121981        1.550033  
C      -4.429028       -2.965145        0.181172  
C      -4.236155       -2.035659        2.426756  
C      -4.644240        0.356005        2.834224  
C      -4.077700       -2.202419        3.833534  
H      -4.010183       -4.119238        1.946759  
C      -4.472991       -4.087062       -0.696765  
C      -4.876622       -1.523970       -1.761851  
C       3.269634        1.162812        2.090140  
C       4.479059        1.185790       -0.040480  
C       5.003550       -0.513788        1.646575  
C       5.236372        0.033750        0.383648  
C       4.037535        0.014328        2.505608  
C       2.289380        1.677781        2.988702  
C       3.795674       -0.547138        3.791726  
H       5.575979       -1.383943        1.964124  
C       6.218164       -0.507223       -0.493700  
C       4.758974        1.733730       -1.328565  
C       5.700965        1.170400       -2.151094  
C       6.443318        0.035247       -1.730885  
H       6.784337       -1.371294       -0.151227  
H       4.212317        2.614016       -1.658632  
H       5.888883        1.600830       -3.130899  
H       7.187092       -0.399437       -2.393349  
C       2.838735       -0.026928        4.623492  
C       2.073217        1.096235        4.212670  
H       1.711967        2.550025        2.689865  
H       4.380883       -1.414329        4.090421  
H       2.659868       -0.472832        5.597990  
H       1.315110        1.501370        4.877912  
C      -4.943526       -2.632814       -2.567392  
C      -4.731608       -3.931092       -2.034030  
H      -4.310158       -5.076557       -0.274979  
H      -5.032189       -0.536582       -2.189384  
H      -5.156487       -2.517637       -3.626941  
H      -4.780908       -4.797554       -2.687299  
C      -4.212904       -1.141900        4.690598  
C      -4.519013        0.148406        4.183380  
H      -4.874855        1.350091        2.459157  
H      -3.870601       -3.200019        4.214055  
H      -4.104791       -1.286450        5.761588  
H      -4.652951        0.977522        4.872741  
