117
F:47-60;
P       0.307718       -2.396950        0.009397  
C      -0.813253       -3.194975       -1.248037  
O      -0.127963       -4.319662       -1.826983  
H      -1.706039       -3.587482       -0.746402  
P      -1.714719       -0.556068       -1.601187  
C      -1.241444       -2.211957       -2.330145  
O      -2.394387       -2.721140       -3.017948  
H      -0.443953       -2.091993       -3.071143  
C      -1.589733        0.508765       -3.085789  
C      -0.248774       -3.172016        1.563662  
H      -2.215111        0.124421       -3.896159  
H      -1.890608        1.531802       -2.857106  
H      -0.543562        0.522572       -3.403383  
H      -0.161901       -4.260355        1.508569  
H       0.329997       -2.795609        2.407605  
H      -1.293772       -2.887469        1.713816  
C      -3.445710       -1.137097       -1.593006  
C      -3.540472       -2.268649       -2.425010  
C      -4.746981       -2.915680       -2.664475  
H      -4.778332       -3.785039       -3.312396  
C      -4.600281       -0.650237       -0.957903  
C      -5.812371       -1.315826       -1.189305  
H      -6.709892       -0.948514       -0.699011  
C      -5.884437       -2.421082       -2.035323  
H      -6.840217       -2.910483       -2.197149  
C       1.689776       -3.351804       -0.644767  
C       1.211297       -4.296663       -1.564782  
C       2.066582       -5.195207       -2.195995  
C       3.065298       -3.256670       -0.379601  
C       3.923342       -4.155523       -1.020013  
H       4.990773       -4.094268       -0.826348  
C       3.424560       -5.115164       -1.903837  
H       1.673169       -5.921663       -2.898799  
H       4.111195       -5.804524       -2.386421  
Rh      -0.039879       -0.101069        0.037254  
C       3.879194        3.992093        0.409232  
C       2.857231        3.227784        0.977339  
C       2.016727        2.468576        0.157531  
C       2.221478        2.456384       -1.222566  
C       3.235480        3.236832       -1.778638  
C       4.066640        4.024764       -0.974560  
O       4.669324        4.664898        1.289821  
H       2.738570        3.225162        2.057077  
H       1.622963        1.831706       -1.878393  
O       3.360986        3.156308       -3.130939  
H       4.868364        4.605383       -1.411828  
C       0.892756        1.779797        0.839991  
H       1.046929        1.686477        1.916002  
C      -0.929991        2.948903       -0.590580  
H      -1.957105        2.737693       -0.900876  
H      -0.909717        3.978635       -0.205404  
H      -0.285639        2.918618       -1.467878  
N      -1.411231        1.947721        1.583871  
H      -1.847686        2.819698        1.861089  
C      -0.486581        1.989776        0.471487  
C      -1.539279        0.875440        2.383913  
O      -1.066321       -0.232107        2.036577  
C       3.595115       -2.199658        0.519593  
C      -4.624897        0.546863       -0.075523  
H       1.393325        0.153458        0.748645  
H       0.784737        0.015769       -1.274656  
C      -2.221957        1.032686        3.697917  
H      -2.947306        0.228129        3.834915  
H      -1.472105        0.937221        4.488349  
H      -2.723051        1.995597        3.807048  
C       4.417242        3.886154       -3.737532  
H       4.307335        4.963574       -3.569138  
H       5.394040        3.558111       -3.361576  
H       4.352472        3.678234       -4.804564  
C       5.783642        5.369332        0.760426  
H       6.457643        4.692824        0.220157  
H       5.465526        6.176177        0.090471  
H       6.304957        5.794770        1.616596  
C      -4.518379        1.838832       -0.636306  
C      -4.913665        0.390234        1.299640  
C      -4.949564        2.829552        1.566073  
C      -5.130090        1.558801        2.119186  
C      -4.634547        2.999976        0.215163  
C      -4.354492        2.054978       -2.037264  
C      -4.480860        4.295709       -0.357873  
H      -5.090795        3.707762        2.194571  
C      -5.536144        1.387756        3.475155  
C      -5.028999       -0.890496        1.919527  
C       3.436607       -2.307976        1.917647  
C       4.264303       -1.090215       -0.042568  
C       4.532869       -0.132649        2.201474  
C       4.766369       -0.052365        0.826241  
C       3.886981       -1.232842        2.770175  
C       2.878510       -3.465324        2.537695  
C       3.692042       -1.341551        4.177845  
H       4.886408        0.670706        2.846778  
C       5.497929        1.030237        0.259201  
C       4.472757       -0.946039       -1.447629  
C       5.187472        0.109520       -1.953099  
C       5.721548        1.100855       -1.089621  
H       5.874602        1.802667        0.927335  
H       4.067827       -1.694622       -2.122955  
H       5.342378        0.193836       -3.025801  
H       6.287099        1.931470       -1.505188  
C       3.126389       -2.461032        4.730099  
C       2.729762       -3.541492        3.898856  
H       2.568987       -4.298587        1.910854  
H       4.021346       -0.518158        4.807653  
H       2.993894       -2.533301        5.805758  
H       2.304461       -4.435523        4.346787  
C      -5.404896       -1.012645        3.233559  
C      -5.684926        0.138240        4.016839  
H      -5.719016        2.277563        4.073676  
H      -4.824885       -1.780853        1.330885  
H      -5.492395       -1.998929        3.680219  
H      -5.998130        0.022832        5.050533  
C      -4.271922        4.455208       -1.703073  
C      -4.229243        3.319850       -2.553703  
H      -4.336648        1.196401       -2.703204  
H      -4.548716        5.160226        0.298615  
H      -4.160594        5.449091       -2.126404  
H      -4.102827        3.455374       -3.624375  
