117
F:47-60;
P      -0.361432        2.291629        0.869610  
C       0.783044        3.384586       -0.098725  
O       0.149951        4.668307       -0.232026  
H       1.719580        3.544753        0.447577  
P       1.610207        0.983062       -1.267898  
C       1.082914        2.767876       -1.460965  
O       2.157115        3.473474       -2.095895  
H       0.208940        2.846296       -2.117204  
C       1.307848        0.337078       -2.954759  
C       0.076846        2.743414        2.584254  
H       1.843857        0.923509       -3.705844  
H       1.619180       -0.706583       -3.025866  
H       0.231847        0.385961       -3.147065  
H      -0.100923        3.807393        2.761848  
H      -0.486924        2.145993        3.299846  
H       1.138054        2.517826        2.716362  
C       3.339956        1.570149       -1.303662  
C       3.356126        2.883495       -1.809513  
C       4.538110        3.579167       -2.035309  
H       4.506735        4.589454       -2.429144  
C       4.555313        0.946653       -0.973147  
C       5.744381        1.657515       -1.188392  
H       6.688026        1.182764       -0.933136  
C       5.735012        2.944235       -1.723407  
H       6.674374        3.464975       -1.884057  
C      -1.739000        3.349100        0.355313  
C      -1.208722        4.563298       -0.114895  
C      -2.021863        5.636436       -0.462259  
C      -3.132613        3.151745        0.364375  
C      -3.946058        4.236708        0.012453  
H      -5.024215        4.102861        0.016883  
C      -3.398792        5.462324       -0.366839  
H      -1.582004        6.565510       -0.808691  
H      -4.057964        6.284730       -0.628672  
Rh       0.088746        0.082681        0.345759  
C      -3.831525       -3.972219        0.179720  
C      -2.727539       -3.369494        0.801437  
C      -1.931314       -2.479387        0.088089  
C      -2.243316       -2.166106       -1.243275  
C      -3.319934       -2.798689       -1.857456  
C      -4.123760       -3.708213       -1.153482  
O      -4.574247       -4.788332        0.974377  
H      -2.519441       -3.599395        1.842361  
H      -1.658285       -1.420084       -1.767311  
O      -3.681394       -2.589703       -3.150432  
H      -4.970310       -4.151906       -1.664456  
C      -0.733449       -1.959278        0.789535  
H      -0.773681       -2.119059        1.868151  
C       0.943566       -2.714156       -1.048800  
H       1.919978       -2.384922       -1.414198  
H       0.999569       -3.802323       -0.902534  
H       0.202745       -2.530681       -1.825557  
N       1.637722       -2.211641        1.235878  
H       2.130311       -3.097863        1.247972  
C       0.600739       -2.034971        0.242061  
C       1.838489       -1.342776        2.241829  
O       1.311789       -0.205368        2.210589  
C      -3.749808        1.823403        0.615207  
C       4.660096       -0.428013       -0.416662  
H      -1.254835       -0.380134        1.118256  
H      -0.845943        0.244422       -0.888000  
C       2.670351       -1.762706        3.403283  
H       3.408631       -0.989555        3.626294  
H       2.019417       -1.856658        4.277025  
H       3.179170       -2.714260        3.244051  
C      -2.960400       -1.600967       -3.871397  
H      -3.033979       -0.622100       -3.380028  
H      -1.904091       -1.877551       -3.980022  
H      -3.425209       -1.547381       -4.855322  
C      -5.759303       -5.334975        0.411546  
H      -6.444722       -4.540640        0.090997  
H      -5.533376       -5.985038       -0.441012  
H      -6.225360       -5.921652        1.201488  
C       4.467089       -1.549069       -1.252915  
C       5.095952       -0.601263        0.917305  
C       5.097924       -3.033984        0.595694  
C       5.367731       -1.931061        1.410240  
C       4.643924       -2.878712       -0.716960  
C       4.149920       -1.426370       -2.639047  
C       4.404237       -4.001968       -1.560606  
H       5.281022       -4.036605        0.979691  
C       5.921667       -2.086532        2.714758  
C       5.315572        0.496555        1.803598  
C      -3.679993        1.207791        1.882760  
C      -4.417990        1.177409       -0.452492  
C      -4.933898       -0.715814        1.023599  
C      -5.060704       -0.095500       -0.220637  
C      -4.238632       -0.109642        2.071874  
C      -3.092771        1.849087        3.011729  
C      -4.085091       -0.751172        3.334342  
H      -5.388268       -1.693899        1.178780  
C      -5.801544       -0.702141       -1.275720  
C      -4.483847        1.719750       -1.772936  
C      -5.196679        1.095810       -2.765289  
C      -5.881614       -0.121153       -2.512440  
H      -6.289200       -1.654309       -1.076177  
H      -3.964352        2.647996       -1.992015  
H      -5.231598        1.533437       -3.759580  
H      -6.442646       -0.601036       -3.309496  
C      -3.454897       -0.121820        4.376738  
C      -2.974689        1.204491        4.217142  
H      -2.747421        2.875185        2.909413  
H      -4.488931       -1.755078        3.451987  
H      -3.343760       -0.623013        5.334004  
H      -2.518961        1.715215        5.061505  
C       5.835395        0.302815        3.058719  
C       6.164599       -1.001345        3.513959  
H       6.141323       -3.093651        3.062763  
H       5.079151        1.502433        1.466843  
H       6.001356        1.155423        3.711134  
H       6.591407       -1.134180        4.503751  
C       4.054007       -3.837976       -2.875348  
C       3.944876       -2.533003       -3.423331  
H       4.077236       -0.433770       -3.076564  
H       4.522636       -4.997018       -1.137905  
H       3.878301       -4.703424       -3.507608  
H       3.702942       -2.411407       -4.475778  
