79
mapping.R.ts3 optimized geometry
C       2.235284        6.296842        0.878773  
C       2.671759        4.981545        0.795730  
C       1.750176        3.921625        0.646765  
C       0.351875        4.211346        0.575264  
C      -0.068643        5.557357        0.662667  
C       0.855670        6.582854        0.815269  
H       3.237122        2.338574        0.637946  
H       2.952724        7.104921        0.993523  
H       3.733352        4.748906        0.846746  
C       2.170244        2.549567        0.587517  
C      -0.576353        3.136187        0.347599  
H      -1.132056        5.781617        0.607554  
H       0.514016        7.612656        0.884432  
C      -0.155520        1.758103        0.437868  
C       1.276625        1.521072        0.491808  
O      -0.971275        0.783694        0.411722  
H      -2.532602        0.392787        0.535266  
C      -0.680324        3.176916       -1.861382  
C      -1.583815        2.234790       -2.317317  
H       0.381806        2.999872       -1.983821  
H      -1.010325        4.208561       -1.817569  
H      -2.650927        2.401164       -2.372163  
N      -1.204247        0.948211       -2.645931  
O      -2.118593        0.121559       -2.991954  
O       0.007681        0.590506       -2.621239  
H      -1.635690        3.344553        0.462872  
H       1.612666        0.490229        0.480246  
C      -1.090496       -2.289423       -0.307870  
N       0.068940       -1.848714       -0.908679  
N      -2.187248       -1.703596       -0.837536  
H      -2.077719       -1.083792       -1.649863  
H      -0.058435       -1.149242       -1.646500  
C       1.407746       -1.927128       -0.514323  
C       2.352464       -1.482513       -1.462287  
C       1.860076       -2.316636        0.753822  
C       3.703547       -1.429002       -1.141111  
H       2.009440       -1.154934       -2.437262  
C       3.225328       -2.264640        1.050165  
H       1.149715       -2.638781        1.502124  
C       4.163391       -1.822902        0.120659  
H       5.217325       -1.781781        0.363624  
C      -3.572213       -1.927012       -0.462083  
C      -4.266426       -0.566331       -0.216529  
C      -4.307430       -2.715919       -1.561647  
H      -3.580956       -2.511727        0.461193  
C      -5.753726       -0.753757        0.106602  
C      -5.790026       -2.907006       -1.224688  
H      -4.211172       -2.167706       -2.508397  
H      -3.796980       -3.677496       -1.679822  
C      -6.461067       -1.546153       -1.005709  
H      -6.241095        0.217648        0.223149  
H      -5.860737       -1.296614        1.053598  
H      -6.288434       -3.454488       -2.032623  
H      -5.883314       -3.511670       -0.311906  
H      -7.516306       -1.669867       -0.738492  
H      -6.424555       -0.968186       -1.939246  
C       3.647040       -2.691747        2.437526  
C       4.685335       -0.855462       -2.135774  
F       4.980816       -2.557422        2.656876  
F       3.335094       -3.999714        2.678858  
F       3.011220       -1.962248        3.402954  
F       4.277723       -0.999041       -3.424554  
F       4.868246        0.486631       -1.931046  
F       5.916261       -1.430729       -2.040195  
H      -4.156170        0.045537       -1.118722  
S      -1.171215       -3.470422        0.913183  
C      -4.038737        1.594619        1.157497  
C      -3.374582       -0.502382        2.206594  
C      -3.352415        1.926424        2.478895  
H      -5.122190        1.561894        1.273981  
H      -3.769572        2.237675        0.317012  
C      -3.479386        0.608875        3.268955  
H      -2.408633       -1.007429        2.188319  
H      -4.162493       -1.248066        2.302520  
H      -2.301013        2.165671        2.299106  
H      -3.830734        2.770543        2.981515  
H      -2.703399        0.504748        4.030630  
H      -4.455530        0.559560        3.761270  
N      -3.525564        0.203725        0.862009  
