79
mapping.R.ts5 optimized geometry
C      -4.440825       -2.583063        1.865449  
C      -3.603136       -1.477379        1.908183  
C      -2.224472       -1.606361        1.634161  
C      -1.686193       -2.887420        1.303793  
C      -2.555061       -3.999565        1.281760  
C      -3.909557       -3.850974        1.555604  
H      -1.749615        0.480337        1.985369  
H      -5.502200       -2.473780        2.070576  
H      -3.998586       -0.493946        2.151129  
C      -1.333217       -0.485231        1.709027  
C      -0.287985       -3.004963        0.957965  
H      -2.151284       -4.980591        1.040187  
H      -4.564077       -4.718555        1.527896  
C       0.599364       -1.866964        1.083988  
C       0.001938       -0.598424        1.442731  
O       1.844606       -1.991067        0.849629  
H       2.994568       -0.808016        0.881231  
C      -0.294669       -3.257413       -1.178084  
C       1.014352       -3.357555       -1.634015  
H      -0.876236       -2.380907       -1.433486  
H      -0.853545       -4.178083       -1.052201  
H       1.625537       -4.238260       -1.490555  
N       1.704876       -2.295657       -2.175112  
O       2.932776       -2.408904       -2.432266  
O       1.089563       -1.202389       -2.466612  
H       0.173090       -3.983218        1.057897  
H       0.650785        0.269246        1.514597  
C       1.219257        1.672358       -0.658993  
N       0.063571        1.127269       -1.178799  
N       2.300336        0.894726       -0.938400  
H       2.138956        0.092370       -1.556456  
H       0.223404        0.240177       -1.661273  
C      -1.292923        1.342737       -0.928476  
C      -2.163806        0.370849       -1.458462  
C      -1.838615        2.398404       -0.182524  
C      -3.529157        0.424924       -1.207213  
H      -1.755802       -0.443678       -2.048293  
C      -3.215048        2.436390        0.050571  
H      -1.187977        3.159106        0.223761  
C      -4.077176        1.457126       -0.443219  
H      -5.139361        1.494189       -0.238175  
C       3.693345        1.289983       -0.797613  
C       4.534205        0.132512       -0.220338  
C       4.267444        1.730694       -2.158937  
H       3.727572        2.136430       -0.107199  
C       5.996834        0.572727       -0.075231  
C       5.740787        2.139123       -2.043687  
H       4.164758        0.897411       -2.866944  
H       3.654819        2.559994       -2.528277  
C       6.567783        0.997974       -1.438165  
H       6.603497       -0.235599        0.341789  
H       6.057989        1.422113        0.616089  
H       6.129188        2.413162       -3.031108  
H       5.822132        3.026325       -1.400443  
H       7.612456        1.302292       -1.310509  
H       6.557675        0.135637       -2.118597  
C      -3.768813        3.521020        0.946590  
C      -4.418983       -0.640735       -1.805024  
F      -3.056288        4.676419        0.877194  
F      -3.749838        3.129534        2.260613  
F      -5.061545        3.831071        0.655619  
F      -4.712819       -0.366770       -3.113664  
F      -3.831262       -1.869628       -1.791671  
F      -5.606264       -0.758088       -1.155756  
H       4.466134       -0.728662       -0.894367  
S       1.318027        3.108161        0.236866  
C       4.729271       -1.491670        1.762836  
C       3.721682        0.714929        2.138823  
C       5.169388       -0.918187        3.107526  
H       5.537621       -1.819214        1.110401  
H       4.020782       -2.310404        1.892664  
C       4.004345        0.018576        3.467032  
H       2.714206        1.114221        2.017623  
H       4.442167        1.514234        1.961167  
H       5.329508       -1.709693        3.843939  
H       6.096895       -0.344998        2.998715  
H       3.132753       -0.562316        3.788106  
H       4.254513        0.740506        4.248409  
N       3.940313       -0.361892        1.087042  
