90
mapping.R.ts1 optimized geometry
C      -3.425898        3.407506       -2.455506  
C      -3.164519        4.359966       -1.472798  
C      -2.582338        3.986398       -0.247696  
C      -2.232087        2.634327       -0.009726  
C      -2.521684        1.691892       -0.999004  
C      -3.114529        2.067498       -2.208755  
H      -2.662342        6.002754        0.562219  
H      -3.878250        3.702483       -3.398097  
H      -3.421557        5.404137       -1.634889  
C      -2.400083        4.972365        0.797477  
C      -1.502101        2.243751        1.264499  
H      -2.289190        0.647216       -0.833537  
H      -3.333083        1.310077       -2.956604  
C      -1.652202        3.276531        2.411576  
C      -1.978681        4.652429        2.045745  
O      -1.396792        2.965366        3.577434  
H       1.866744        0.836688        0.131781  
C       0.067759        2.314775        0.996167  
C       0.564550        1.455722       -0.155207  
H       0.534347        2.031014        1.937722  
H       0.348634        3.352632        0.804662  
H      -0.016923        0.553085       -0.333422  
N       0.606685        2.177250       -1.408749  
O       0.542746        1.512542       -2.489244  
O       0.777902        3.402261       -1.441550  
C      -1.885430        0.837681        1.757921  
H      -1.913318        5.399799        2.831869  
H      -1.444415        0.659562        2.740986  
H      -2.973382        0.742364        1.835567  
H      -1.528115        0.061691        1.076865  
C       1.476401       -1.781166       -1.645936  
N       0.101902       -1.671618       -1.925877  
N       2.121804       -0.640113       -1.933018  
H       1.519073        0.146056       -2.204182  
H      -0.146278       -0.932504       -2.574485  
C      -0.966780       -2.060602       -1.110218  
C      -2.263591       -1.900238       -1.633382  
C      -0.819628       -2.503727        0.212361  
C      -3.377180       -2.164443       -0.842393  
H      -2.385691       -1.548839       -2.652335  
C      -1.950621       -2.770319        0.985070  
H       0.166803       -2.616283        0.639470  
C      -3.237920       -2.609046        0.476130  
H      -4.109172       -2.809502        1.087155  
C       3.531263       -0.261301       -1.761763  
C       3.974748       -0.416167       -0.289007  
C       4.431985       -1.049376       -2.736028  
H       3.566753        0.796347       -2.038818  
C       5.487241       -0.200186       -0.104163  
C       5.919849       -0.761367       -2.516615  
H       4.246773       -2.117734       -2.586894  
H       4.121542       -0.795020       -3.755600  
C       6.296830       -1.079735       -1.067173  
H       5.752646       -0.439508        0.927196  
H       5.768711        0.840220       -0.278021  
H       6.515050       -1.359816       -3.216101  
H       6.135285        0.296861       -2.724156  
H       7.365562       -0.909039       -0.893692  
H       6.093506       -2.139758       -0.861472  
C      -1.751655       -3.260796        2.402134  
C      -4.770353       -1.907553       -1.370715  
F      -0.669458       -2.684764        2.998249  
F      -1.542225       -4.610850        2.437584  
F      -2.823614       -3.008121        3.197908  
F      -5.301757       -0.771847       -0.824995  
F      -4.807664       -1.748962       -2.719301  
F      -5.626254       -2.921465       -1.062285  
H       3.794272       -1.469753       -0.077226  
N       3.077238        0.335782        0.695895  
C       3.508865        1.709065        1.184636  
C       2.644293       -0.663105        1.772476  
H       2.601756        2.088503        1.657647  
H       2.108770       -1.418587        1.189536  
S       2.146223       -3.226831       -1.081366  
C       3.785718       -1.402176        2.498292  
C       1.659677       -0.095484        2.792078  
C       3.793101        2.655986        0.011752  
C       4.603314        1.794804        2.255344  
H       3.023737        2.590765       -0.757524  
H       3.787147        3.679852        0.399091  
H       4.766280        2.482815       -0.451565  
H       5.567330        1.410825        1.920935  
H       4.729030        2.856500        2.499086  
H       4.309518        1.282369        3.173281  
H       4.463247       -1.917329        1.813593  
H       4.372141       -0.746652        3.144450  
H       3.318981       -2.167070        3.128057  
H       1.481118       -0.861792        3.552217  
H       2.043670        0.793727        3.300709  
H       0.698318        0.130338        2.335612  
