81
ts4 TS lib
C       7.015936        2.546974       -0.645291  
C       5.861376        3.140765       -1.140215  
C       4.590567        2.740897       -0.681501  
C       4.488398        1.721719        0.293045  
C       5.662391        1.135032        0.769939  
C       6.931499        1.533755        0.323867  
H       3.529000        4.138740       -1.960207  
H       7.990842        2.861233       -1.009931  
H       5.925281        3.923630       -1.892494  
C       3.396974        3.371951       -1.198173  
C       3.124865        1.216056        0.766950  
H       5.602011        0.337696        1.505919  
H       7.828748        1.078697        0.733196  
C       1.929081        2.083899        0.289150  
C       2.149412        3.068465       -0.759392  
O       0.805334        1.916080        0.778029  
H       1.522811       -1.832074       -0.205131  
C       2.956841       -0.205026        0.105703  
C       1.711137       -0.986875        0.480328  
H       2.939871       -0.079486       -0.982888  
H       3.843297       -0.798164        0.344674  
H       0.816805       -0.371297        0.523090  
N       1.784775       -1.693322        1.821766  
O       0.696929       -1.943426        2.365081  
O       2.863872       -2.048848        2.270314  
C       3.076040        1.137444        2.310357  
H       1.272698        3.581728       -1.141380  
H       3.807752        0.421127        2.688253  
H       3.292689        2.122903        2.735616  
H       2.078552        0.835847        2.639692  
C      -2.039831       -1.706691       -0.184571  
N      -1.709748       -0.533656        0.484689  
N      -1.287782       -2.750090        0.200958  
H      -0.555833       -2.579432        0.883777  
H      -1.244796       -0.635322        1.378462  
C      -2.229199        0.739335        0.201313  
C      -2.978042        1.411646        1.195097  
C      -1.992605        1.403890       -1.021941  
C      -3.498021        2.683470        0.968733  
C      -3.252972        0.729833        2.524284  
C      -2.555359        2.661396       -1.249117  
C      -1.094909        0.903548       -2.150351  
C      -3.307919        3.297349       -0.266669  
C      -3.841449        4.687434       -0.523772  
C      -1.352494       -4.102241       -0.343432  
C       0.064139       -4.713109       -0.408864  
C      -2.292702       -5.000613        0.479073  
H      -1.756331       -4.021238       -1.356674  
C      -0.037044       -6.111108       -1.058666  
C      -2.375136       -6.406301       -0.132153  
H      -1.910352       -5.061052        1.507444  
H      -3.280291       -4.528110        0.513914  
C      -0.976773       -7.028429       -0.259801  
H       0.961492       -6.556128       -1.122855  
H      -0.417011       -6.001900       -2.082858  
H      -3.025254       -7.042416        0.480243  
H      -2.832172       -6.336967       -1.129478  
H      -1.037505       -8.012369       -0.740650  
H      -0.557117       -7.182280        0.744811  
H      -2.380987        3.160146       -2.195470  
H      -4.070137        3.182984        1.739786  
H       0.412547       -4.850000        0.625960  
N       1.036873       -3.791252       -1.032911  
C       0.734505       -3.433920       -2.421242  
C       2.414873       -4.267142       -0.899425  
H       1.462928       -2.685411       -2.753654  
H       0.789323       -4.295001       -3.110631  
H      -0.262282       -2.989020       -2.487101  
H       2.630646       -5.158879       -1.515024  
H       3.099113       -3.468829       -1.211346  
H       2.615657       -4.512023        0.149729  
S      -3.271782       -1.774390       -1.337710  
F      -4.240064        4.851156       -1.814451  
F      -2.886149        5.636933       -0.287204  
F      -4.902158        4.992449        0.267944  
F      -0.283585       -0.128518       -1.831791  
F      -0.269686        1.913843       -2.569342  
F      -1.815823        0.536923       -3.243995  
F      -4.008747        1.486078        3.354956  
F      -2.091214        0.454626        3.200348  
F      -3.902329       -0.454702        2.366217  
