23
bp2
Si       0.000000      0.000000      0.000000
O       0.225413      0.009695     -1.796348
C      -0.102624     -0.933845     -2.641066
C       0.407007     -0.851580     -4.016715
H      -1.082454     -1.401174     -2.518327
C       1.561199     -0.111882     -4.329994
C      -0.288590     -1.527929     -5.033253
C       2.002442     -0.041071     -5.648516
H       2.103670      0.392275     -3.537260
C       0.158159     -1.454934     -6.352398
H      -1.177569     -2.102080     -4.784409
C       1.302923     -0.711816     -6.661786
H       2.893025      0.531889     -5.891392
H      -0.384160     -1.973723     -7.137533
H       1.651974     -0.656069     -7.689187
C       1.140202     -2.509077     -1.900199
C       0.276653     -2.675639     -0.832823
H       1.205681     -3.316498     -2.621003
H       1.963147     -1.806729     -1.850096
O       0.034288     -1.802393      0.103027
Cl      -2.212430      0.050613     -0.244063
Cl      -0.105186      0.101277      2.209190
H      -0.361378     -3.563299     -0.788715
