23
bp4
Si       0.000000      0.000000      0.000000
O       0.054153     -1.783596      0.092880
C       0.573729     -2.618131     -0.776140
C       0.247190     -4.044929     -0.656297
H       1.568038     -2.390641     -1.167070
C      -0.866859     -4.485473      0.079906
C       1.080312     -4.978589     -1.296996
C      -1.136685     -5.848824      0.173698
H      -1.502865     -3.757132      0.572900
C       0.804559     -6.341506     -1.200541
H       1.939121     -4.629373     -1.865587
C      -0.305098     -6.777877     -0.466671
H      -1.994113     -6.191636      0.745882
H       1.451076     -7.062298     -1.692814
H      -0.521215     -7.840059     -0.391539
C      -0.570613     -2.115325     -2.500282
C       0.157501     -0.950671     -2.663183
H      -0.475826     -2.871993     -3.271211
H      -1.457308     -2.133201     -1.878178
O       0.235978      0.031166     -1.812349
Cl      -0.107700      0.097618      2.212991
Cl      -2.205059      0.051198     -0.238891
H       0.834807     -0.849602     -3.516957
