23
bp5
Si       0.000000      0.000000      0.000000
O      -1.749842      0.134274     -0.224385
C      -2.515257     -0.551993     -1.067598
C      -3.936182     -0.124993     -1.164099
H      -2.373595     -1.635399     -1.074552
C      -4.341649      1.168418     -0.800437
C      -4.881278     -1.048938     -1.635128
C      -5.685706      1.526349     -0.898892
H      -3.605603      1.875476     -0.430380
C      -6.224698     -0.685722     -1.735311
H      -4.561100     -2.050050     -1.914442
C      -6.628706      0.602853     -1.368556
H      -6.001221      2.524367     -0.607306
H      -6.954757     -1.406038     -2.093514
H      -7.674916      0.886237     -1.444539
C      -1.901416     -0.067540     -2.860858
C      -0.613965     -0.568023     -2.653893
H      -2.537601     -0.585568     -3.571973
H      -2.071114      0.997441     -2.744107
O       0.219778      0.008165     -1.852993
Cl      -0.218901      0.163158      2.192995
Cl       0.055404     -2.235640      0.019533
H      -0.337934     -1.557370     -3.036084
