75
ts1
C       -4.7193650        4.1833940        0.3282860
C       -3.4093780        4.6403430        0.3675540
C       -2.3277840        3.7397200        0.2410660
C       -2.5893210        2.3467320        0.0648680
C       -3.9305560        1.9043760        0.0280750
C       -4.9778450        2.8061670        0.1612640
H       -0.7663880        5.2354620        0.4320230
H       -5.5455040        4.8823270        0.4276010
H       -3.1983860        5.6994890        0.4999570
C       -0.9613420        4.1715550        0.3077730
C       -1.4887790        1.4438780       -0.1362190
H       -4.1313830        0.8439560       -0.1059560
H       -6.0046110        2.4495770        0.1361470
C       -0.1255350        1.8610610        0.1084060
C        0.0846610        3.2916270        0.2447900
O        0.8188630        1.0085400        0.1431350
H        2.4551150        1.1627100        0.3487100
C       -1.3668620        1.4356570       -2.3039360
C       -0.4483790        0.4863680       -2.7199240
H       -1.1221560        2.4878090       -2.3963000
H       -2.4155600        1.1668710       -2.3636140
H       -0.6881230       -0.5633840       -2.8002080
N        0.8802250        0.7813940       -2.9565270
O        1.6647170       -0.2115340       -3.2194380
O        1.3117940        1.9567250       -2.9518530
H       -1.6913200        0.3820620       -0.0736710
H        1.1015270        3.6602050        0.3294290
C        2.0781620       -1.7267640       -0.0425260
N        0.8707410       -1.9942730       -0.6763900
N        2.9094240       -1.0194970       -0.8363170
H        2.5155120       -0.6660740       -1.7186070
H        0.8679030       -1.7943890       -1.6728820
C       -0.4148750       -2.0617260       -0.1315380
C       -1.4504510       -2.4420850       -1.0033990
C       -0.7415580       -1.6868850        1.1791730
C       -2.7767860       -2.4195340       -0.5793260
H       -1.2114910       -2.7386330       -2.0197570
C       -2.0750720       -1.6903480        1.5899960
H        0.0337840       -1.3538840        1.8532650
C       -3.1100230       -2.0458020        0.7251610
H       -4.1419770       -2.0282520        1.0504190
C        4.2914280       -0.6095920       -0.5946660
C        4.4386170        0.3348400        0.6143910
C        5.2713690       -1.7967500       -0.4845790
H        4.5682400       -0.0509680       -1.4948410
C        5.8868880        0.8154370        0.7570800
C        6.7159560       -1.3091340       -0.3227570
H        4.9878860       -2.4121850        0.3736530
H        5.1597140       -2.4054030       -1.3881700
C        6.8382260       -0.3855010        0.8951590
H        5.9816490        1.4721380        1.6271050
H        6.1763010        1.3896580       -0.1313720
H        7.3841690       -2.1713730       -0.2175110
H        7.0268370       -0.7622440       -1.2243030
H        7.8648230       -0.0188130        1.0034870
H        6.5891390       -0.9452930        1.8066290
C       -2.3670630       -1.2200340        2.9968040
C       -3.8725340       -2.7168340       -1.5751960
F       -1.9743800        0.0760820        3.1816520
F       -1.6963540       -1.9602890        3.9273170
F       -3.6855480       -1.2812250        3.3168540
F       -4.2458340       -1.5811990       -2.2472640
F       -3.4906710       -3.6164440       -2.5218820
F       -4.9962910       -3.2059690       -0.9880090
H        4.1364840       -0.2130210        1.5089870
N        3.4516330        1.5026730        0.5341250
C        3.7353230        2.4682120       -0.5754190
C        3.3545120        2.2149110        1.8483700
H        2.9157540        3.1844890       -0.6087170
H        4.6786230        2.9783350       -0.3811890
H        3.7648330        1.9283210       -1.5208160
H        3.1667280        1.4729850        2.6261120
H        4.2819770        2.7538340        2.0425500
H        2.5175340        2.9111850        1.7911130
S        2.4466950       -2.3086100        1.5050840
