75
ts1
C       -3.9461800        3.2693580       -1.3041600
C       -3.1786090        2.1183860       -1.2237570
C       -1.7675530        2.2033810       -1.1920840
C       -1.1345680        3.4768570       -1.2341390
C       -1.9301270        4.6318870       -1.3240980
C       -3.3168190        4.5295150       -1.3625580
H       -1.4422690        0.0680180       -1.1684720
H       -5.0301870        3.2031490       -1.3251830
H       -3.6471440        1.1385630       -1.1832700
C       -0.9465920        1.0332050       -1.1687860
C        0.3122270        3.5449090       -1.0747180
H       -1.4520360        5.6078550       -1.3592780
H       -3.9207890        5.4299470       -1.4360100
C        1.0897180        2.3395810       -1.2342930
C        0.4256930        1.0846140       -1.2142870
O        2.3881730        2.4530750       -1.3540560
H        2.9344630        1.5167950       -1.3066960
C        0.5266510        3.9247470        0.8525360
C       -0.0020740        2.9540110        1.7275640
H        1.6097100        4.0155250        0.8278930
H       -0.0231870        4.8617520        0.8262150
H       -1.0172450        2.9528010        2.0982570
N        0.7457010        1.8729860        2.0963540
O        0.2609420        1.0004910        2.8930710
O        1.9246270        1.7257080        1.6313190
H        0.7996760        4.4583780       -1.4087410
H        1.0162680        0.1777520       -1.2584850
C        1.4600940       -1.7850200        0.5877580
N        0.2763460       -1.3159800        1.1377720
N        2.4507750       -0.8665800        0.6507290
H        2.2401010        0.0475630        1.0772240
H        0.3766140       -0.5351180        1.7986350
C       -1.0528530       -1.5771240        0.8034290
C       -2.0304990       -0.8467170        1.5102850
C       -1.4715180       -2.4242170       -0.2357460
C       -3.3733880       -0.9417310        1.1627600
H       -1.7184130       -0.1688600        2.2970280
C       -2.8284550       -2.5157920       -0.5535170
H       -0.7401910       -2.9881630       -0.7975150
C       -3.7978930       -1.7815860        0.1286960
H       -4.8444960       -1.8531830       -0.1374410
C        3.8707090       -1.1644660        0.4950220
C        4.6497860       -0.0029620       -0.1624280
C        4.4735080       -1.5222120        1.8691310
H        3.9500190       -2.0430730       -0.1496870
C        6.1253690       -0.4439250       -0.2982120
C        5.9434710       -1.9314230        1.7429320
H        4.3794440       -0.6519130        2.5327730
H        3.8732290       -2.3339290        2.2942570
C        6.7405540       -0.8164080        1.0599810
H        6.7160110        0.3609100       -0.7420700
H        6.1795670       -1.3075380       -0.9745890
H        6.3585840       -2.1551710        2.7327440
H        6.0111780       -2.8492890        1.1422380
H        7.7849410       -1.1168620        0.9148720
H        6.7444420        0.0735870        1.7052610
C       -3.2204720       -3.3757780       -1.7340510
C       -4.3886210       -0.1444170        1.9498800
F       -2.5249420       -4.5450170       -1.7759330
F       -2.9683400       -2.7329070       -2.9178650
F       -4.5410180       -3.6969940       -1.7396580
F       -4.7846860       -0.8103700        3.0763140
F       -3.8982370        1.0575800        2.3615610
F       -5.5166290        0.1135790        1.2326450
H        4.6092000        0.8696550        0.5029410
N        4.0327510        0.4662500       -1.4593560
C        3.6062500       -0.6267090       -2.3614200
C        4.9467300        1.3728050       -2.2026540
H        3.1573530       -0.1747680       -3.2516560
H        4.4573150       -1.2479590       -2.6737770
H        2.8625090       -1.2593670       -1.8726340
H        5.3155850        2.1485170       -1.5253070
H        5.7956730        0.8327920       -2.6387360
H        4.3742010        1.8446890       -3.0060220
S        1.6598960       -3.3389650       -0.0664960
