23
ts1
C       -0.0511780        6.5062550       -1.1990800
C       -0.8183340        5.3786300       -0.9363400
C       -0.2396230        4.0915820       -0.9689450
C        1.1477850        3.9501600       -1.2627260
C        1.9087120        5.1063810       -1.5251760
C        1.3177910        6.3654600       -1.5005510
H       -2.0720910        3.0171610       -0.5139580
H       -0.5041610        7.4936490       -1.1762040
H       -1.8776380        5.4725550       -0.7073690
C       -1.0169330        2.9013390       -0.7549580
C        1.7469960        2.6352900       -1.1680540
H        2.9688050        5.0034580       -1.7476290
H        1.9171250        7.2470260       -1.7139950
C        0.9102290        1.4511030       -1.2058320
C       -0.4913100        1.6494740       -0.9083600
O        1.3562950        0.2814750       -1.4399160
H        2.7518940       -0.4092980       -1.2771690
C        2.2748720        2.6999890        0.8904930
C        1.1874870        2.9247330        1.7348050
H        2.7546450        1.7279580        0.9216910
H        2.9228270        3.5503650        0.7048730
H        0.7551380        3.9003300        1.9054560
N        0.4921060        1.8957690        2.3295500
O       -0.5427770        2.1364040        3.0005630
O        0.9214100        0.6880840        2.2199720
H        2.7631390        2.5223330       -1.5401450
H       -1.1175140        0.7683610       -0.8204100
C        0.7510640       -2.2501460        0.5302160
N       -0.3051850       -1.4511630        0.9003370
N        1.9443300       -1.6504670        0.7874240
H        1.9154670       -0.7089010        1.1718660
H       -0.0347430       -0.6170790        1.4406770
C       -1.6603370       -1.4564600        0.5721130
C       -2.4417270       -0.4671190        1.2075230
C       -2.2723200       -2.3028400       -0.3639990
C       -3.7917120       -0.3341080        0.9037570
H       -1.9754710        0.2040190        1.9241640
C       -3.6337780       -2.1552170       -0.6430960
H       -1.6871770       -3.0619980       -0.8637930
C       -4.4103190       -1.1755780       -0.0268770
H       -5.4621540       -1.0684750       -0.2582300
C        3.2598860       -2.2608580        0.7030810
C        4.2393830       -1.3490230       -0.0640000
C        3.8251420       -2.5549910        2.1074690
H        3.1488560       -3.2070330        0.1684780
C        5.6175670       -2.0115040       -0.1731830
C        5.2142620       -3.2005660        2.0249310
H        3.8836690       -1.6126670        2.6696960
H        3.1151510       -3.2078310        2.6254820
C        6.1770000       -2.3116440        1.2272810
H        6.3082950       -1.3596400       -0.7152650
H        5.5262990       -2.9491020       -0.7345570
H        5.6032910       -3.3762610        3.0341310
H        5.1295430       -4.1783400        1.5309380
H        7.1562140       -2.7923880        1.1278630
H        6.3297590       -1.3645940        1.7630900
C       -4.2357130       -3.0615140       -1.6932640
C       -4.5774130        0.7963990        1.5267260
F       -3.8678000       -4.3628350       -1.5207890
F       -3.8236980       -2.7087280       -2.9501090
F       -5.5945430       -3.0321780       -1.7053580
F       -4.1488800        1.1086070        2.7778520
F       -4.4685420        1.9414060        0.7803200
F       -5.9071450        0.5203790        1.6169550
H        4.3396120       -0.4047130        0.4841420
N        3.6814030       -0.9327160       -1.4176860
C        3.3599660       -2.0724820       -2.3334930
C        4.5535490        0.0710700       -2.1038810
H        2.9288150       -1.6472740       -3.2412670
H        4.2749000       -2.6182600       -2.5690450
H        2.6283700       -2.7205770       -1.8480970
H        4.8045190        0.8569810       -1.3888830
H        5.4580770       -0.4115790       -2.4747280
H        3.9791740        0.4867780       -2.9333310
S        0.6243040       -3.8122100       -0.1225070
