23
ts1
C       -3.2982960        3.1431500       -1.3098020
C       -2.5185090        1.9961500       -1.2992850
C       -1.1111040        2.0829230       -1.3760790
C       -0.4851370        3.3624120       -1.4717430
C       -1.2993980        4.5159300       -1.4873970
C       -2.6820820        4.4080750       -1.4073080
H       -0.7620690       -0.0554630       -1.3417730
H       -4.3800040        3.0686280       -1.2429500
H       -2.9800780        1.0149600       -1.2282760
C       -0.2793920        0.9161190       -1.3965590
C        0.9515900        3.4359870       -1.4797040
H       -0.8293100        5.4941280       -1.5618090
H       -3.2945670        5.3061200       -1.4212330
C        1.7620020        2.2573510       -1.6561770
C        1.0798280        0.9878180       -1.5328060
O        3.0241760        2.3337050       -1.8740950
H        3.7923050        1.2099540       -1.1490530
C        1.3214940        3.7128790        0.7213570
C        0.7268290        2.7680940        1.5394460
H        2.3983590        3.7069630        0.5952800
H        0.8031510        4.6576190        0.6093950
H       -0.3129680        2.7973890        1.8340790
N        1.4171050        1.6872290        2.0485080
O        0.8110350        0.8802400        2.8247680
O        2.6504380        1.5124630        1.7891480
C        1.4677420       -1.9086400        0.4861480
O        1.4007410       -2.6013950       -0.5312460
N        0.3640330       -1.4417100        1.1981040
N        2.6617620       -1.5290550        1.0520940
H        2.6611460       -0.8478060        1.8017390
H        0.5579210       -0.7314000        1.9086950
C       -0.9768090       -1.5205940        0.8275920
C       -1.8574480       -0.5892210        1.4094950
C       -1.4854770       -2.4673510       -0.0795260
C       -3.2074310       -0.5940780        1.0742150
H       -1.4630840        0.1498450        2.0984400
C       -2.8416530       -2.4432280       -0.4070940
H       -0.8212450       -3.1899350       -0.5290280
C       -3.7201530       -1.5179450        0.1605970
H       -4.7694630       -1.5102050       -0.1085730
C        3.9380030       -1.8311700        0.4156400
C        4.2274840       -0.9040120       -0.7883500
C        5.0747560       -1.7972090        1.4453350
H        3.8663790       -2.8402380       -0.0020640
C        5.5825860       -1.2303330       -1.4280140
H        3.4279220       -1.0323400       -1.5193620
C        6.4141620       -2.1591090        0.7826210
H        5.1405280       -0.7950550        1.8927590
H        4.8394590       -2.4960810        2.2547040
C        6.7277870       -1.2286780       -0.3991030
H        5.7818220       -0.5295860       -2.2468920
H        5.4950970       -2.2301170       -1.8691790
H        7.2184130       -2.1125630        1.5250210
H        6.3625560       -3.1950600        0.4203900
H        7.6553570       -1.5370610       -0.8932440
H        6.9084430       -0.2111800       -0.0212980
N        4.1814910        0.5454560       -0.3730390
H        3.5352810        0.7094780        0.4199710
H        5.0993280        0.8784570       -0.0823480
H        1.4183920        4.3905660       -1.7089930
H        1.6593640        0.0735920       -1.6091580
C       -4.1457830        0.3888880        1.7358530
C       -3.4061950       -3.4692620       -1.3639770
F       -3.5154070        1.5136960        2.1666420
F       -5.1468700        0.7875420        0.9021580
F       -4.7511670       -0.1639840        2.8316190
F       -4.0902930       -4.4487390       -0.6960610
F       -2.4529640       -4.0927390       -2.1028850
F       -4.2907070       -2.9143120       -2.2421120
