23
ts1
C       -4.0626650        2.8782710       -1.3947370
C       -3.2678740        1.7415100       -1.4423490
C       -1.8607690        1.8455610       -1.4617670
C       -1.2487230        3.1369090       -1.4368050
C       -2.0774020        4.2791330       -1.3986600
C       -3.4612250        4.1524490       -1.3752830
H       -1.4995210       -0.2898030       -1.5550910
H       -5.1449720        2.7871370       -1.3698270
H       -3.7196840        0.7532890       -1.4590920
C       -1.0199110        0.6849950       -1.5285610
C        0.1887120        3.2329630       -1.4143870
H       -1.6181970        5.2651680       -1.3851150
H       -4.0841920        5.0427750       -1.3425650
C        1.0095650        2.0588450       -1.5882840
C        0.3442300        0.7732250       -1.5692750
O        2.2751090        2.1749440       -1.7086620
H        3.3783870        1.2231930       -1.1871010
C        0.6178250        3.6615080        0.7267410
C        1.8936860        3.2547720        1.0949360
H       -0.2375200        3.1158490        1.1053000
H        0.4713380        4.7109990        0.5012270
H        2.7972780        3.7897970        0.8394710
N        2.1143860        2.0510630        1.7246780
O        3.3227310        1.6518050        1.9087720
O        1.1471910        1.3511350        2.1516160
C        1.7138700       -1.7886590        0.5248700
O        1.6654610       -2.6353340       -0.3704760
N        0.6032220       -1.2557420        1.1753980
N        2.8940340       -1.2761750        1.0092390
H        2.8757810       -0.4987880        1.6617670
H        0.7920530       -0.3970050        1.6976230
C       -0.7402870       -1.4729080        0.8957200
C       -1.6588010       -0.5542310        1.4413390
C       -1.2258590       -2.5361350        0.1155070
C       -3.0201470       -0.6874420        1.1954540
H       -1.2900210        0.2743430        2.0359720
C       -2.5979730       -2.6437490       -0.1217300
H       -0.5349030       -3.2497250       -0.3083550
C       -3.5119440       -1.7302800        0.4056920
H       -4.5723620       -1.8268720        0.2104940
C        4.1612360       -1.5454390        0.3459350
C        4.3249310       -0.7213880       -0.9514490
C        5.3346080       -1.3221310        1.3092580
H        4.1541040       -2.5928820        0.0290640
C        5.6668660       -1.0297770       -1.6252410
H        3.4973350       -0.9620950       -1.6214860
C        6.6719340       -1.6384160        0.6199560
H        5.3318080       -0.2816490        1.6623150
H        5.1911140       -1.9575430        2.1894060
C        6.8520720       -0.8180700       -0.6678460
H        5.7724900       -0.4220100       -2.5317280
H        5.6346850       -2.0793850       -1.9405290
H        7.4993320       -1.4463840        1.3118330
H        6.6965560       -2.7071860        0.3669080
H        7.7822760       -1.0980640       -1.1738010
H        6.9468500        0.2468700       -0.4097290
N        4.2058230        0.7655030       -0.6608470
H        4.0235380        0.9826660        0.3387450
H        5.0563900        1.2621880       -0.9224500
H        0.6431760        4.1799550       -1.6900100
H        0.9531690       -0.1243480       -1.6375600
C       -3.9861670        0.2784140        1.8416610
C       -3.0910920       -3.7360520       -1.0432780
F       -5.1154060        0.4583580        1.1035460
F       -4.3936020       -0.1765950        3.0678770
F       -3.4420000        1.5073830        2.0476030
F       -2.3362490       -4.8653950       -0.9702440
F       -3.0576320       -3.3298640       -2.3516120
F       -4.3767380       -4.1001880       -0.7848900

