82
mapping.R.ts4 optimized geometry
C      -4.069195       -2.016300        1.548254  
C      -3.069622       -1.096898        1.845019  
C      -1.716876       -1.407593        1.603048  
C      -1.358289       -2.666712        1.069031  
C      -2.376733       -3.579994        0.783527  
C      -3.718141       -3.261230        1.012691  
H      -1.002043        0.516992        2.312705  
H      -5.112190       -1.766859        1.719591  
H      -3.318788       -0.120130        2.249718  
C      -0.691500       -0.428398        1.874965  
C       0.099665       -3.053614        0.877095  
H      -2.124195       -4.552049        0.371959  
H      -4.490774       -3.985188        0.767927  
C       1.084074       -1.882861        1.008931  
C       0.613886       -0.631652        1.569886  
O       2.298977       -2.062291        0.785216  
H       3.363996       -0.721418        0.796416  
C       0.347474       -3.871680       -0.454915  
C      -0.387449       -3.446009       -1.677983  
H       1.433173       -3.851072       -0.609257  
H       0.064929       -4.910674       -0.254750  
H      -1.170161       -4.046946       -2.120942  
N      -0.158338       -2.287874       -2.277338  
O      -0.779632       -1.896041       -3.327480  
O       0.754970       -1.486819       -1.748203  
C       0.485255       -3.994555        2.067373  
H       1.349041        0.146277        1.746333  
H       0.388575       -3.472459        3.025966  
H      -0.181846       -4.861951        2.067828  
H       1.520802       -4.327842        1.941071  
C       1.262899        1.627276       -0.778247  
N       0.080308        1.024150       -1.100234  
N       2.333283        0.800500       -1.000037  
H       2.129616       -0.095708       -1.439575  
H       0.193307        0.058591       -1.501125  
C      -1.244385        1.322022       -0.781017  
C      -2.218049        0.528264       -1.422856  
C      -1.661519        2.270520        0.165135  
C      -3.564926        0.685988       -1.116315  
H      -1.902825       -0.219611       -2.147636  
C      -3.021910        2.417281        0.445777  
H      -0.927857        2.876467        0.677347  
C      -3.989811        1.636411       -0.183058  
H      -5.039799        1.753387        0.052368  
C       3.715409        1.244596       -1.120273  
C       4.679323        0.191989       -0.539149  
C       4.082562        1.545984       -2.584368  
H       3.813105        2.166262       -0.541435  
C       6.128622        0.682905       -0.631921  
C       5.532264        2.033461       -2.698299  
H       3.943080        0.632730       -3.178803  
H       3.380377        2.298567       -2.957650  
C       6.493618        1.003490       -2.092577  
H       6.810632       -0.081716       -0.250845  
H       6.250656        1.583457       -0.017327  
H       5.783717        2.217579       -3.748843  
H       5.635190        2.987886       -2.163845  
H       7.526497        1.366378       -2.129858  
H       6.450769        0.076712       -2.680691  
C      -3.421056        3.382909        1.535999  
C      -4.588142       -0.155544       -1.843729  
F      -2.685058        4.527631        1.515281  
F      -3.233391        2.828233        2.778939  
F      -4.728506        3.748126        1.470812  
F      -4.953236        0.420774       -3.031763  
F      -4.128672       -1.398047       -2.140642  
F      -5.736209       -0.316484       -1.126288  
H       4.575608       -0.743616       -1.099833  
S       1.447230        3.207836       -0.178994  
C       5.172413       -1.103231        1.637709  
C       4.026265        0.981034        1.825192  
C       4.542355       -1.114278        3.031271  
H       6.171066       -0.665870        1.653013  
H       5.186361       -2.068269        1.129433  
C       3.991183        0.329077        3.223555  
H       3.109174        1.494551        1.532977  
H       4.867101        1.667600        1.714551  
H       3.725592       -1.839256        3.058826  
H       5.277692       -1.385928        3.791525  
H       2.973028        0.305842        3.618812  
H       4.609141        0.906344        3.914810  
N       4.261279       -0.169818        0.876370  
