82
mapping.R.ts5 optimized geometry
C      -4.808245       -2.181163        1.093505  
C      -3.934190       -1.282453        1.695172  
C      -2.539645       -1.444496        1.574568  
C      -2.010037       -2.530965        0.837377  
C      -2.907225       -3.433400        0.254359  
C      -4.289003       -3.262151        0.371806  
H      -2.103492        0.310553        2.774757  
H      -5.882354       -2.044081        1.180629  
H      -4.313612       -0.435260        2.259935  
C      -1.649703       -0.494661        2.202323  
C      -0.507086       -2.711386        0.660949  
H      -2.528402       -4.281807       -0.307872  
H      -4.959852       -3.973257       -0.102874  
C       0.347649       -1.630019        1.350272  
C      -0.299693       -0.566393        2.091085  
O       1.584719       -1.693580        1.280816  
H       3.423209       -0.910109        0.088738  
C      -0.208829       -2.687003       -0.907894  
C       1.225707       -2.741844       -1.272018  
H      -0.669534       -1.799397       -1.341020  
H      -0.744424       -3.556887       -1.308806  
H       1.876792       -3.518517       -0.897212  
N       1.847457       -1.784174       -1.941043  
O       3.135659       -1.792218       -2.089171  
O       1.188622       -0.770003       -2.484669  
C      -0.068911       -4.083012        1.234713  
H       0.344687        0.178132        2.548947  
H       1.010812       -4.206430        1.113106  
H      -0.314374       -4.147654        2.300565  
H      -0.586857       -4.889382        0.706197  
C       1.265800        1.635190       -0.162627  
N       0.159669        1.019129       -0.700192  
N       2.412994        1.143567       -0.711770  
H       2.305143        0.547142       -1.540427  
H       0.403402        0.275475       -1.392227  
C      -1.208874        1.249716       -0.591836  
C      -1.835353        2.065420        0.364408  
C      -2.017887        0.549584       -1.510296  
C      -3.228265        2.160370        0.387559  
H      -1.231941        2.604864        1.080211  
C      -3.403705        0.640390       -1.451546  
H      -1.546731       -0.068648       -2.267447  
C      -4.032275        1.448781       -0.501800  
H      -5.111362        1.515881       -0.455732  
C       3.753136        1.653590       -0.465194  
C       4.772623        0.500599       -0.533528  
C       4.129079        2.747427       -1.482054  
H       3.766617        2.087703        0.538575  
C       6.193271        1.009246       -0.274848  
C       5.553561        3.262532       -1.244168  
H       4.048290        2.325183       -2.492800  
H       3.393394        3.553211       -1.393494  
C       6.557049        2.103208       -1.295470  
H       6.910922        0.187828       -0.349948  
H       6.264258        1.428602        0.735924  
H       5.806961        4.020255       -1.994236  
H       5.605475        3.745875       -0.258664  
H       7.572709        2.458372       -1.089616  
H       6.559548        1.667405       -2.303777  
C      -4.226154       -0.107860       -2.473968  
C      -3.868642        2.985127        1.479299  
F      -3.677572       -1.310442       -2.801150  
F      -4.333935        0.598771       -3.642077  
F      -5.495061       -0.350578       -2.049436  
F      -3.958001        2.273286        2.651237  
F      -3.159912        4.108941        1.769604  
F      -5.133259        3.378115        1.172345  
H       4.712901        0.028432       -1.518092  
S       1.267925        2.833181        1.039473  
C       5.198615       -1.857048        0.405513  
C       4.189234       -0.221791        1.884052  
C       4.664727       -2.624346        1.609521  
H       6.237051       -1.556237        0.548872  
H       5.058026       -2.339892       -0.561354  
C       4.437890       -1.524656        2.675123  
H       3.184258        0.177579        2.001947  
H       4.928754        0.546559        2.105437  
H       3.715247       -3.099032        1.349950  
H       5.370837       -3.389915        1.939829  
H       3.584926       -1.759266        3.314053  
H       5.326369       -1.409465        3.302362  
N       4.347807       -0.607139        0.419768  
