78
mapping.R.ts3 optimized geometry
C       4.265019       -1.334189       -1.574291  
C       3.223046       -0.507405       -1.984616  
C       1.892068       -0.959593       -1.950085  
C       1.600543       -2.272372       -1.505453  
C       2.656292       -3.083630       -1.084949  
C       3.978188       -2.623805       -1.121105  
H       1.088071        0.933502       -2.655861  
H       5.289324       -0.974305       -1.595702  
H       3.423673        0.500894       -2.333506  
C       0.822680       -0.088840       -2.395972  
C       0.147646       -2.738367       -1.403619  
H       2.460436       -4.088365       -0.725526  
H       4.780919       -3.276635       -0.789737  
C      -0.816897       -1.903770       -2.288237  
C      -0.456445       -0.512210       -2.544244  
O      -1.875939       -2.383426       -2.694233  
H      -2.405742       -1.938879       -0.024189  
C      -0.260113       -2.421013        0.081773  
C      -1.736992       -2.693213        0.401096  
H      -0.035051       -1.374360        0.290341  
H       0.373668       -3.044917        0.720567  
H      -2.049270       -3.697814        0.121665  
N      -1.938663       -2.592637        1.900963  
O      -2.182679       -3.612668        2.530464  
O      -1.832002       -1.471242        2.413221  
C      -0.018376       -4.240280       -1.693672  
H      -1.227311        0.138541       -2.946596  
H       0.417462       -4.487452       -2.666666  
H       0.476418       -4.838762       -0.923418  
H      -1.077290       -4.505232       -1.714704  
C      -1.368641        1.703817        0.389645  
N      -0.321169        1.028609        1.042247  
N      -2.590492        1.208770        0.739979  
H      -2.638662        0.275897        1.131954  
H      -0.600939        0.295544        1.681204  
C       1.051458        1.190996        0.897477  
C       1.651106        2.202971        0.129844  
C       1.882139        0.273593        1.573291  
C       3.044061        2.276588        0.053998  
H       1.029983        2.914440       -0.394860  
C       3.264932        0.366935        1.477656  
H       1.435531       -0.513468        2.171864  
C       3.869670        1.372894        0.718624  
H       4.946689        1.436539        0.640796  
C      -3.835710        1.695675        0.146194  
C      -4.948203        0.663395        0.430780  
C      -4.228421        3.070435        0.720873  
H      -3.701105        1.799467       -0.938570  
C      -6.286686        1.157897       -0.153156  
C      -5.565821        3.556121        0.146378  
H      -4.309655        2.971444        1.812344  
H      -3.425547        3.782397        0.507944  
C      -6.675508        2.529887        0.416645  
H      -7.066988        0.417000        0.055440  
H      -6.194262        1.239140       -1.243452  
H      -5.825138        4.529003        0.580900  
H      -5.464451        3.701341       -0.938775  
H      -7.624508        2.862889       -0.021414  
H      -6.829216        2.442174        1.501917  
C       4.123902       -0.601858        2.256382  
C       3.633435        3.361473       -0.817504  
F       3.533499       -1.819855        2.406306  
F       4.376967       -0.136368        3.519057  
F       5.333583       -0.813888        1.673221  
F       3.183450        4.599607       -0.464792  
F       4.989917        3.404519       -0.775151  
F       3.286685        3.188225       -2.132148  
H      -5.053949        0.615909        1.524173  
N      -4.543245       -0.695609        0.009057  
C      -4.554907       -0.889333       -1.444153  
C      -5.330600       -1.736117        0.671287  
H      -3.952438       -0.116932       -1.931071  
H      -4.109188       -1.859860       -1.677825  
H      -5.574075       -0.861965       -1.869303  
H      -6.393672       -1.733299        0.366121  
H      -4.912744       -2.717682        0.418007  
H      -5.278868       -1.599713        1.757378  
O      -1.195784        2.645999       -0.384568  
