78
mapping.R.ts5 optimized geometry
C       4.265204       -1.334402       -1.573329  
C       3.223180       -0.507730       -1.983770  
C       1.892248       -0.960058       -1.949360  
C       1.600830       -2.272884       -1.504780  
C       2.656612       -3.084004       -1.084095  
C       3.978460       -2.624021       -1.120111  
H       1.088049        0.933043       -2.654859  
H       5.289468       -0.974407       -1.594663  
H       3.423744        0.500595       -2.332638  
C       0.822773       -0.089378       -2.395163  
C       0.147963       -2.739033       -1.403199  
H       2.460835       -4.088740       -0.724638  
H       4.781230       -3.276740       -0.788600  
C      -0.816384       -1.904663       -2.288264  
C      -0.456304       -0.512863       -2.543583  
O      -1.874826       -2.384696       -2.695347  
H      -2.405477       -1.938598       -0.025091  
C      -0.260219       -2.421453        0.082041  
C      -1.737326       -2.693202        0.400631  
H      -0.035005       -1.374838        0.290641  
H       0.373145       -3.045508        0.721102  
H      -2.049827       -3.697688        0.121040  
N      -1.939994       -2.592352        1.900339  
O      -2.185336       -3.612096        2.529780  
O      -1.832757       -1.470982        2.412492  
C      -0.017871       -4.241008       -1.692984  
H      -1.227193        0.137885       -2.945887  
H       0.476955       -4.839286       -0.922595  
H      -1.076751       -4.506110       -1.714024  
H       0.418029       -4.488322       -2.665914  
C      -1.368549        1.703650        0.389212  
N      -0.321080        1.028687        1.042085  
N      -2.590405        1.208755        0.739669  
H      -2.638601        0.275994        1.131900  
H      -0.600726        0.296296        1.681861  
C       1.051535        1.191128        0.897347  
C       1.651180        2.202949        0.129487  
C       1.882231        0.273894        1.573352  
C       3.044119        2.276684        0.053758  
H       1.030021        2.914166       -0.395511  
C       3.265027        0.367311        1.477787  
H       1.435644       -0.513160        2.171953  
C       3.869756        1.373216        0.718690  
H       4.946781        1.436944        0.640997  
C      -3.835599        1.695756        0.145907  
C      -4.948329        0.663857        0.430872  
C      -4.227876        3.070773        0.720260  
H      -3.701099        1.799233       -0.938901  
C      -6.286725        1.158585       -0.153064  
C      -5.565188        3.556697        0.145768  
H      -4.309045        2.972067        1.811761  
H      -3.424808        3.782435        0.507073  
C      -6.675121        2.530842        0.416407  
H      -7.067235        0.417986        0.055795  
H      -6.194376        1.239528       -1.243389  
H      -5.824185        4.529761        0.580070  
H      -5.463881        3.701610       -0.939431  
H      -7.624076        2.863956       -0.021664  
H      -6.828757        2.443451        1.501714  
C       4.124084       -0.601503        2.256407  
C       3.633550        3.361444       -0.817869  
F       3.533401       -1.819293        2.406943  
F       4.377903       -0.135736        3.518840  
F       5.333408       -0.814039        1.672727  
F       3.183907        4.599678       -0.465211  
F       4.990060        3.404205       -0.775703  
F       3.286615        3.188142       -2.132482  
H      -5.053984        0.616672        1.524285  
N      -4.543793       -0.695427        0.009475  
C      -4.555815       -0.889555       -1.443689  
C      -5.331499       -1.735459        0.672079  
H      -3.953625       -0.117178       -1.931002  
H      -4.109963       -1.860076       -1.677145  
H      -5.575102       -0.862503       -1.868560  
H      -6.394624       -1.732174        0.367125  
H      -4.914169       -2.717261        0.418860  
H      -5.279447       -1.598897        1.758132  
O      -1.195626        2.645548       -0.385336  
