83
mapping.S.ts5 optimized geometry
C      -4.945395       -0.003569       -1.675332  
C      -3.811412       -0.376121       -2.392557  
C      -2.869847       -1.261729       -1.837343  
C      -3.056394       -1.769394       -0.527943  
C      -4.205859       -1.394782        0.171163  
C      -5.146037       -0.526080       -0.394760  
H      -1.613872       -1.252346       -3.611838  
H      -5.668213        0.681629       -2.109130  
H      -3.641641        0.008293       -3.395433  
C      -1.732447       -1.693984       -2.624140  
C      -1.956981       -2.603782        0.123587  
H      -4.378375       -1.769007        1.174527  
H      -6.030909       -0.252398        0.173699  
C      -1.029481       -3.296552       -0.906988  
C      -0.871012       -2.652755       -2.206415  
O      -0.392755       -4.310344       -0.608266  
H       1.111868       -1.808385        0.908217  
C      -1.055868       -1.534966        0.864326  
C       0.217439       -2.111407        1.490410  
H      -0.790159       -0.741930        0.161582  
H      -1.686592       -1.093149        1.637485  
H       0.208834       -3.195731        1.587345  
N       0.503056       -1.583639        2.876506  
O       1.103420       -2.328647        3.652811  
O       0.181020       -0.424921        3.149950  
C      -2.495549       -3.626825        1.136973  
H      -0.073108       -3.017287       -2.846290  
H      -2.955918       -3.118116        1.988642  
H      -3.240450       -4.276726        0.666164  
H      -1.682087       -4.253204        1.508239  
C       0.837998        1.505903        0.000514  
N       0.085599        2.411513        0.677857  
N       1.830852        0.930767        0.764407  
H       1.757997        1.120060        1.755565  
H       0.436296        2.651618        1.595522  
C      -1.222156        3.067026        0.370457  
C       3.242595        0.743734        0.344951  
C       3.499611       -0.456558       -0.592405  
C       3.813433        2.047219       -0.251219  
H       3.770068        0.544404        1.285360  
C       5.009919       -0.549183       -0.909051  
C       5.301228        1.926452       -0.604480  
H       3.239413        2.286052       -1.154706  
H       3.651327        2.859126        0.468376  
C       5.536941        0.740959       -1.548785  
H       5.181224       -1.408155       -1.567902  
H       5.566400       -0.735121        0.019643  
H       5.649972        2.862204       -1.058704  
H       5.885471        1.772974        0.314813  
H       6.604614        0.640242       -1.780959  
H       5.010409        0.921335       -2.497025  
H       2.967996       -0.247065       -1.523970  
N       2.921006       -1.707523       -0.066166  
C       3.640845       -2.287786        1.069163  
C       2.721676       -2.705743       -1.115808  
H       3.035624       -3.097705        1.491217  
H       4.625512       -2.703125        0.789257  
H       3.790608       -1.533196        1.847640  
H       2.144108       -2.256820       -1.930558  
H       3.672760       -3.095964       -1.525543  
H       2.150804       -3.547687       -0.709647  
S       0.591681        1.060096       -1.620334  
C      -1.388552        4.107986        1.509206  
C      -2.355666        2.013051        0.394191  
C      -1.218190        3.776483       -1.003962  
H      -1.322121        3.579209        2.468266  
H      -0.538176        4.799044        1.470004  
H      -3.259066        2.481717       -0.013307  
H      -2.076910        1.216104       -0.302252  
H      -2.161562        4.329793       -1.070979  
H      -1.240933        3.012810       -1.783599  
C      -2.697434        4.902057        1.471829  
C      -0.037393        4.719817       -1.246754  
C      -2.656217        1.432039        1.779194  
H      -2.772117        5.537466        2.361436  
H      -2.751025        5.550290        0.591005  
H      -3.565612        4.234369        1.457381  
H      -3.090032        2.187930        2.443808  
H      -3.369451        0.607551        1.693579  
H      -1.744046        1.047915        2.246368  
H       0.908542        4.170095       -1.191027  
H      -0.112283        5.168054       -2.244647  
H      -0.007929        5.535695       -0.514603  
