90
mapping.R.ts3 optimized geometry
C       4.430257       -0.393228       -1.899314  
C       3.217557        0.047089       -2.420894  
C       2.080409       -0.780673       -2.386616  
C       2.153816       -2.061804       -1.789271  
C       3.377629       -2.486685       -1.269159  
C       4.510684       -1.668861       -1.334767  
H       0.828598        0.666310       -3.415796  
H       5.303020        0.251968       -1.926351  
H       3.133969        1.035850       -2.863727  
C       0.847516       -0.340418       -3.006378  
C       0.883008       -2.892841       -1.620394  
H       3.459683       -3.460226       -0.798472  
H       5.450788       -2.024488       -0.923714  
C      -0.245441       -2.500947       -2.614430  
C      -0.240767       -1.140548       -3.132619  
O      -1.158738       -3.290549       -2.871473  
H      -1.793923       -2.892015       -0.428931  
C       0.345512       -2.472430       -0.200273  
C      -0.947294       -3.160006        0.207687  
H       0.206528       -1.389383       -0.186718  
H       1.129250       -2.720566        0.520665  
H      -0.870981       -4.247523        0.237667  
N      -1.400622       -2.762817        1.613118  
O      -2.302763       -3.429139        2.103252  
O      -0.866539       -1.801757        2.168835  
C       1.146208       -4.408142       -1.668999  
H      -1.127745       -0.810887       -3.664790  
H       1.694248       -4.668261       -2.580052  
H       1.733319       -4.726715       -0.802596  
H       0.199698       -4.952721       -1.668198  
C      -0.849137        1.742052        0.040499  
N       0.067562        1.057344        0.827116  
N      -2.118083        1.597867        0.486145  
H      -2.315500        0.842797        1.144276  
H      -0.327577        0.368896        1.456901  
C       1.465802        1.117238        0.883993  
C       2.227711        2.211485        0.449895  
C       2.121991        0.023230        1.474184  
C       3.616767        2.180179        0.583294  
H       1.740911        3.072887        0.016993  
C       3.507349        0.016328        1.601315  
H       1.538335       -0.817999        1.829711  
C       4.276231        1.090138        1.149443  
H       5.354972        1.074093        1.234482  
C      -3.321676        1.983296       -0.250142  
C      -4.536503        1.210260        0.346887  
C      -3.618441        3.490844       -0.177898  
H      -3.180567        1.716960       -1.302050  
C      -5.763045        1.485097       -0.550688  
C      -4.855849        3.813639       -1.030242  
H      -3.800340        3.762336        0.871373  
H      -2.748610        4.051619       -0.529886  
C      -6.074971        2.991836       -0.582193  
H      -6.622483        0.927261       -0.170428  
H      -5.561449        1.128255       -1.567890  
H      -5.078260        4.886013       -0.975216  
H      -4.630161        3.582782       -2.081132  
H      -6.928844        3.184443       -1.243404  
H      -6.368657        3.309153        0.428981  
C       4.175969       -1.149998        2.289455  
C       4.411759        3.339977        0.030185  
F       3.513394       -2.324633        2.091029  
F       4.231524       -0.963084        3.644152  
F       5.456025       -1.340604        1.871646  
F       4.568673        3.232422       -1.326326  
F       3.803949        4.538434        0.252449  
F       5.661615        3.423523        0.559275  
H      -4.739609        1.713324        1.299609  
N      -4.233664       -0.177650        0.711420  
C      -4.208454       -1.241651       -0.313462  
C      -4.777590       -0.608850        2.023252  
H      -3.707324       -2.081450        0.185376  
H      -4.664780       -1.698321        2.045456  
S      -0.443491        2.611460       -1.352342  
C      -3.927437       -0.037849        3.168873  
C      -6.267597       -0.289816        2.266131  
C      -3.357244       -0.873861       -1.532993  
C      -5.580640       -1.784996       -0.768353  
H      -2.385065       -0.467940       -1.238898  
H      -3.188337       -1.770893       -2.136291  
H      -3.862096       -0.137100       -2.165704  
H      -6.158992       -1.025555       -1.301703  
H      -5.422131       -2.635377       -1.443782  
H      -6.164911       -2.138305        0.086538  
H      -2.884663       -0.357022        3.068223  
H      -3.964547        1.058817        3.176606  
H      -4.305977       -0.390432        4.135885  
H      -6.584937       -0.734358        3.216973  
H      -6.428899        0.792866        2.333431  
H      -6.903279       -0.683125        1.468479  
