91
F:55-60;
P       2.309767       -0.097552        0.914299  
C       2.210618       -1.950283        0.660411  
O       3.538697       -2.406531        0.330275  
H       1.920048       -2.457416        1.587016  
P      -0.006785       -1.064044       -0.986010  
C       1.236312       -2.372174       -0.446576  
O       0.512044       -3.541140       -0.023167  
H       1.839788       -2.667061       -1.314496  
C       0.045599       -1.115829       -2.864800  
C       2.768270        0.149404        2.720592  
C      -0.213256       -2.531550       -3.374340  
C      -1.045601       -0.164033       -3.357103  
C       1.418710       -0.615519       -3.316163  
C       3.868171       -0.829837        3.133642  
C       3.268435        1.585784        2.875925  
C       1.516703       -0.060682        3.572796  
C      -1.350554       -2.142209       -0.469002  
C      -0.839728       -3.358459        0.000909  
C      -1.677820       -4.367581        0.469280  
H      -1.258058       -5.302096        0.826600  
C      -2.731461       -1.933129       -0.474607  
C      -3.581217       -2.931920       -0.007647  
H      -4.654868       -2.765053       -0.003550  
C      -3.051161       -4.136961        0.463084  
H      -3.717632       -4.911703        0.831239  
C       3.856282       -0.082254       -0.001878  
C       4.312185       -1.396766       -0.169724  
C       5.521814       -1.668521       -0.801962  
C       4.608572        0.983770       -0.499662  
C       5.816697        0.724985       -1.140854  
H       6.409176        1.544870       -1.534078  
C       6.264910       -0.592700       -1.282001  
H       5.860746       -2.692839       -0.917294  
H       7.207785       -0.787215       -1.784854  
Rh       0.413877        0.954046        0.148444  
C      -4.155698        0.307119        1.578658  
C      -2.920573        0.884864        1.302394  
C      -2.707004        1.514146        0.062141  
C      -3.746923        1.564916       -0.867673  
C      -4.996001        1.001853       -0.563757  
C      -5.211727        0.370554        0.657692  
O      -4.426376       -0.380853        2.720929  
H      -2.100244        0.791235        2.002593  
H      -3.603829        2.029744       -1.839131  
O      -5.937081        1.105238       -1.539439  
H      -6.151075       -0.106907        0.910393  
C      -1.414999        2.095943       -0.340118  
H      -1.347814        2.299870       -1.408186  
C      -1.045847        3.550592        1.767964  
H      -1.801110        4.319639        1.570986  
H      -1.503025        2.798538        2.408593  
H      -0.214792        4.006548        2.310943  
N       0.212821        3.892579       -0.301834  
H       0.083492        4.877426       -0.111758  
C      -0.591589        2.963200        0.458400  
C       1.069747        3.512848       -1.271549  
O       1.318337        2.304385       -1.472638  
H      -3.140937       -0.998008       -0.846898  
H       4.246132        2.002824       -0.387329  
H       0.698383        2.172674        1.184026  
H      -0.228637        0.188358        1.329681  
C       1.719523        4.579935       -2.086756  
H       1.523948        5.584034       -1.709775  
H       2.796323        4.404135       -2.117504  
H       1.351215        4.515259       -3.113579  
C      -7.199386        0.501467       -1.290979  
H      -7.096840       -0.578684       -1.132886  
H      -7.690448        0.950332       -0.420311  
H      -7.799796        0.683721       -2.180904  
C      -3.337568       -0.634753        3.597525  
H      -2.539096       -1.187197        3.083325  
H      -2.927584        0.294707        4.010738  
H      -3.739029       -1.242772        4.406899  
H       1.069425       -1.050996        3.426008  
H       1.783601        0.024453        4.631594  
H       0.751009        0.692960        3.356438  
H       2.507697        2.317409        2.579454  
H       3.512914        1.770438        3.927373  
H       4.174511        1.769652        2.288749  
H       4.769516       -0.713663        2.523462  
H       4.146891       -0.633059        4.174383  
H       3.544786       -1.873526        3.075127  
H       2.234541       -1.268570       -2.983381  
H       1.450140       -0.598100       -4.411182  
H       1.620576        0.398475       -2.956661  
H      -0.853278        0.864356       -3.032090  
H      -1.070500       -0.170933       -4.452284  
H      -2.040503       -0.458949       -3.003292  
H      -1.203281       -2.896914       -3.083720  
H      -0.163757       -2.533333       -4.468921  
H       0.532937       -3.248979       -3.016278  
