91
F:47-60;
P      -0.933789        1.560266       -1.182906  
C      -2.784442        1.492602       -0.845305  
O      -3.179251        2.774103       -0.317243  
H      -3.340572        1.340247       -1.777128  
P      -1.807648       -0.527079        1.010985  
C      -3.202282        0.386740        0.125705  
O      -3.928529       -0.612011       -0.613759  
H      -3.886715        0.826801        0.865801  
C      -1.884692        0.058294        2.792827  
C      -0.748180        1.987927       -3.000485  
C      -3.227008       -0.294124        3.429633  
C      -0.744898       -0.611766        3.558504  
C      -1.675122        1.572428        2.786320  
C      -1.722184        3.099623       -3.390321  
C       0.689675        2.462206       -3.211119  
C      -1.009407        0.719123       -3.809270  
C      -2.732530       -2.059918        0.827043  
C      -3.770801       -1.863313       -0.092796  
C      -4.598577       -2.909417       -0.489379  
H      -5.400439       -2.731727       -1.198308  
C      -2.503020       -3.336974        1.343423  
C      -3.330940       -4.391198        0.965340  
H      -3.169925       -5.381749        1.378426  
C      -4.367998       -4.171554        0.053584  
H      -5.008608       -4.997776       -0.240539  
C      -0.836013        3.114826       -0.290439  
C      -2.119655        3.560480        0.037337  
C      -2.320153        4.752451        0.727429  
C       0.280282        3.851684        0.111657  
C       0.096652        5.040596        0.811250  
H       0.956092        5.622503        1.128049  
C      -1.197534        5.483535        1.107552  
H      -3.324887        5.080214        0.973674  
H      -1.334667        6.410879        1.656219  
Rh       0.128482       -0.321702       -0.337861  
C       5.755734       -0.937015       -0.455807  
C       4.483534       -1.366235       -0.867187  
C       3.347597       -0.879800       -0.227234  
C       3.473520        0.054001        0.811942  
C       4.740740        0.472966        1.207048  
C       5.894855       -0.018157        0.579712  
O       6.800717       -1.473897       -1.138331  
H       4.408062       -2.080709       -1.681385  
H       2.582345        0.450819        1.282187  
O       4.956130        1.376103        2.201277  
H       6.860536        0.342880        0.912510  
C       2.041639       -1.433730       -0.670130  
H       2.059916       -1.814510       -1.691389  
C       1.519844       -2.502222        1.623344  
H       0.632880       -2.768049        2.202571  
H       2.204153       -3.361567        1.646032  
H       2.022007       -1.675980        2.125332  
N       0.396367       -3.217998       -0.419874  
H       0.582005       -4.168607       -0.123649  
C       1.159428       -2.162231        0.208423  
C      -0.493231       -3.011590       -1.406541  
O      -0.793609       -1.847666       -1.764227  
H       1.280960        3.488755       -0.115050  
H      -1.687536       -3.508366        2.043002  
H       1.368624        0.039944       -1.316399  
H       0.746271        0.623554        0.722599  
C      -1.127712       -4.197556       -2.051146  
H      -2.213973       -4.083246       -2.011832  
H      -0.842412       -4.230784       -3.105235  
H      -0.848692       -5.140925       -1.580012  
C       3.811782        1.890505        2.868584  
H       3.154480        2.430444        2.175523  
H       3.240874        1.089852        3.355271  
H       4.188632        2.579522        3.622734  
C       8.107255       -1.062584       -0.758586  
H       8.240492        0.015609       -0.901735  
H       8.314904       -1.318285        0.286622  
H       8.792744       -1.603648       -1.408943  
H      -2.015060        0.316841       -3.641967  
H      -0.917199        0.946621       -4.876731  
H      -0.291313       -0.069118       -3.562288  
H       0.851476        2.654024       -4.277166  
H       0.896158        3.393531       -2.673005  
H       1.419861        1.709370       -2.893746  
H      -1.578343        4.000840       -2.785427  
H      -1.547857        3.372050       -4.436895  
H      -2.769396        2.792415       -3.308513  
H      -2.495603        2.101417        2.289121  
H      -1.636057        1.934674        3.819131  
H      -0.733616        1.855019        2.299350  
H       0.230581       -0.366255        3.123608  
H      -0.749651       -0.257464        4.594990  
H      -0.850294       -1.701851        3.587168  
H      -3.389510       -1.375065        3.470347  
H      -3.242881        0.086084        4.456984  
H      -4.074154        0.158898        2.904585  
