71
mapping.R.ts4 optimized geometry
C       6.495802       -0.443534       -0.099555  
C       5.602901        0.618749       -0.161328  
C       4.237467        0.394629       -0.440234  
C       3.772437       -0.935100       -0.651022  
C       4.692119       -1.998805       -0.581016  
C       6.036511       -1.757632       -0.316073  
H       3.655220        2.486394       -0.374764  
H       7.546184       -0.262939        0.112346  
H       5.946161        1.638179        0.001105  
C       3.295213        1.475879       -0.560711  
C       2.348253       -1.151897       -0.806493  
H       4.338244       -3.015927       -0.736070  
H       6.736518       -2.588366       -0.274029  
C       1.483898       -0.050883       -1.195880  
C       2.003954        1.278724       -0.960814  
O       0.313444       -0.216810       -1.664139  
H      -0.739616       -1.363698       -1.398877  
C       1.808785       -1.352001        1.191987  
C       2.282153       -0.333612        2.025051  
H       0.736651       -1.412633        1.034378  
H       2.330619       -2.301582        1.264775  
H       3.287215       -0.307985        2.421056  
N       1.530249        0.778629        2.338844  
O       2.021926        1.678525        3.068721  
O       0.327301        0.877925        1.912995  
H       2.032322       -2.141732       -1.129730  
H       1.328937        2.113009       -1.121118  
C      -2.398529        1.291567       -0.136483  
N      -1.551865        2.303129        0.158477  
N      -1.970780        0.073014        0.320090  
H      -1.103659        0.068919        0.855274  
H      -0.746396        2.045915        0.726095  
C      -1.537084        3.722322       -0.290198  
C      -2.782973       -1.123000        0.446381  
C      -2.022369       -2.373054       -0.039358  
C      -3.235475       -1.337853        1.904914  
H      -3.671205       -0.983133       -0.174563  
C      -2.918048       -3.613861        0.057329  
C      -4.109187       -2.591120        2.045675  
H      -2.343414       -1.428662        2.540406  
H      -3.777908       -0.440748        2.221354  
C      -3.374253       -3.826864        1.510803  
H      -2.381851       -4.499994       -0.293796  
H      -3.797459       -3.474723       -0.583133  
H      -4.387378       -2.737581        3.095660  
H      -5.038697       -2.447717        1.477433  
H      -4.017436       -4.712388        1.560211  
H      -2.492771       -4.027399        2.135752  
H      -1.139448       -2.520366        0.594119  
N      -1.441975       -2.175304       -1.433072  
C      -2.446945       -1.803014       -2.477865  
C      -0.624361       -3.346694       -1.879033  
H      -1.905255       -1.661738       -3.414913  
H      -3.174741       -2.609705       -2.582199  
H      -2.932852       -0.870019       -2.185886  
H       0.032965       -3.646900       -1.060609  
H      -1.279627       -4.171262       -2.161422  
H      -0.032369       -3.022983       -2.736851  
S      -3.865739        1.461247       -1.003587  
C      -0.289736        4.339734        0.367567  
C      -2.777442        4.486939        0.203402  
C      -1.402133        3.811799       -1.819419  
H      -0.212768        5.391589        0.076664  
H      -0.359522        4.279521        1.459901  
H       0.620946        3.820914        0.048223  
H      -2.670207        5.544657       -0.065602  
H      -3.688090        4.091893       -0.251210  
H      -2.857589        4.408870        1.293874  
H      -2.266319        3.356759       -2.309562  
H      -1.336570        4.865887       -2.113547  
H      -0.493503        3.295819       -2.150117  
