117
F:47-60;
P      -2.266564       -1.516948       -0.807910  
C      -2.046055       -3.340631       -0.437864  
O      -3.343587       -3.837725       -0.052173  
H      -1.742891       -3.888749       -1.334638  
P       0.253693       -2.259245        0.890850  
C      -1.040769       -3.601347        0.692733  
O      -0.361549       -4.850991        0.471974  
H      -1.598413       -3.700671        1.631650  
C       0.271918       -1.944329        2.683197  
C      -3.086620       -1.532554       -2.443217  
H       0.578814       -2.826846        3.249714  
H       0.938451       -1.108115        2.905460  
H      -0.743703       -1.656147        2.971102  
H      -3.958347       -2.191579       -2.430692  
H      -3.407427       -0.519272       -2.699250  
H      -2.382427       -1.880175       -3.203554  
C       1.542453       -3.430731        0.430677  
C       0.976203       -4.700351        0.253445  
C       1.746550       -5.791927       -0.139959  
H       1.289652       -6.768583       -0.258152  
C       2.904973       -3.215999        0.149703  
C       3.672101       -4.310267       -0.257665  
H       4.727499       -4.164503       -0.471253  
C       3.098071       -5.578349       -0.387830  
H       3.716851       -6.414441       -0.700126  
C      -3.654058       -1.523826        0.358323  
C      -4.071009       -2.850577        0.556603  
C      -5.188617       -3.159044        1.323813  
C      -4.352496       -0.469683        0.961161  
C      -5.473042       -0.780984        1.740064  
H      -6.017619        0.025663        2.223040  
C      -5.885034       -2.103981        1.907902  
H      -5.489792       -4.191914        1.463289  
H      -6.756801       -2.319058        2.518795  
Rh      -0.136581       -0.508107       -0.550881  
C       2.528715        4.501323       -0.744112  
C       2.044256        3.366072       -1.389039  
C       1.450649        2.342235       -0.628574  
C       1.338386        2.465196        0.748157  
C       1.834167        3.616340        1.384293  
C       2.423551        4.638973        0.648329  
O       3.138460        5.536847       -1.383066  
H       2.139079        3.241711       -2.463026  
H       0.909953        1.671419        1.353831  
O       1.714388        3.630098        2.737056  
H       2.822570        5.534411        1.110152  
C       1.035568        1.142605       -1.411099  
H       1.859970        0.693683       -1.970873  
C      -1.270871        2.115110       -2.000677  
H      -2.273825        1.718828       -2.181905  
H      -1.262809        2.586737       -1.015716  
H      -1.083087        2.900923       -2.746580  
N      -0.216930        0.338024       -3.340275  
H      -0.407561        0.876313       -4.177513  
C      -0.230775        1.044441       -2.077562  
C       0.221591       -0.929126       -3.476066  
O       0.434909       -1.645223       -2.470100  
C      -3.910012        0.944039        0.825265  
C       3.485989       -1.853636        0.283457  
H       1.347100       -0.038873       -0.137601  
H      -0.623310        0.331779        0.652224  
C       0.411233       -1.453136       -4.862896  
H       0.711037       -2.498899       -4.820031  
H      -0.512103       -1.366731       -5.442626  
H       1.180712       -0.882920       -5.390091  
C       2.166491        4.788448        3.420044  
H       3.242132        4.944662        3.274113  
H       1.623095        5.681659        3.088861  
H       1.966546        4.612540        4.476712  
C       3.299163        5.426600       -2.790132  
H       3.901001        4.548353       -3.054653  
H       2.329322        5.365906       -3.297378  
H       3.818096        6.330613       -3.105343  
C       3.789106       -1.091643       -0.868023  
C       3.673044       -1.302534        1.570789  
C       4.322753        0.834146        0.560127  
C       4.059745        0.081661        1.706236  
C       4.235672        0.274942       -0.716244  
C       3.634971       -1.596418       -2.193307  
C       4.533959        1.043192       -1.878914  
H       4.605568        1.881315        0.661220  
C       4.168721        0.645646        3.009876  
C       3.515226       -2.070932        2.763097  
C      -3.015763        1.475670        1.777740  
C      -4.411654        1.751462       -0.215233  
C      -3.123184        3.651572        0.652015  
C      -4.013207        3.137235       -0.294070  
C      -2.603942        2.855298        1.676500  
C      -2.488021        0.693228        2.847147  
C      -1.675892        3.368550        2.627346  
H      -2.814641        4.693484        0.580901  
C      -4.517197        3.939156       -1.358215  
C      -5.304039        1.249264       -1.209192  
C      -5.761062        2.053189       -2.222370  
C      -5.363436        3.414665       -2.300397  
H      -4.207365        4.980585       -1.408677  
H      -5.621903        0.210311       -1.154724  
H      -6.437669        1.649077       -2.970170  
H      -5.736364        4.037758       -3.108322  
C      -1.188535        2.581463        3.636995  
C      -1.603136        1.229309        3.748423  
H      -2.802717       -0.343408        2.943258  
H      -1.353152        4.403575        2.528779  
H      -0.472704        2.985515        4.345767  
H      -1.211411        0.614115        4.554696  
C       3.669752       -1.501396        4.001071  
C       3.975443       -0.120560        4.129615  
H       4.421198        1.701420        3.092697  
H       3.269991       -3.127232        2.679701  
H       3.549851       -2.109074        4.893899  
H       4.070552        0.320313        5.117681  
C       4.396817        0.509485       -3.134055  
C       3.937899       -0.826088       -3.288123  
H       3.262578       -2.607383       -2.331916  
H       4.862515        2.071662       -1.742348  
H       4.629640        1.105570       -4.012313  
H       3.820746       -1.240652       -4.285990  
