117
F:47-60;
P       1.370418       -2.365073        0.484714  
C       0.350826       -3.859620        0.004558  
O       1.253863       -4.787976       -0.627316  
H      -0.049688       -4.351578        0.896444  
P      -1.412282       -1.764306       -0.865890  
C      -0.806878       -3.540809       -0.953972  
O      -1.918017       -4.407853       -0.660453  
H      -0.482298       -3.767669       -1.976201  
C      -1.574379       -1.224907       -2.596706  
C       2.231264       -2.943983        1.990073  
H      -2.240381       -1.875480       -3.168606  
H      -1.956630       -0.200378       -2.616736  
H      -0.576507       -1.224455       -3.045694  
H       2.677830       -3.928290        1.826861  
H       3.022284       -2.237630        2.256440  
H       1.518036       -2.999601        2.816030  
C      -2.999089       -2.338662       -0.239021  
C      -3.006306       -3.738108       -0.183406  
C      -4.091912       -4.440866        0.333619  
H      -4.078933       -5.525287        0.359308  
C      -4.093428       -1.604724        0.250301  
C      -5.174549       -2.310231        0.783869  
H      -6.031519       -1.757855        1.159944  
C      -5.168692       -3.707263        0.820214  
H      -6.022585       -4.233691        1.236728  
C       2.513612       -2.791935       -0.854168  
C       2.277481       -4.121035       -1.243475  
C       3.060474       -4.753308       -2.202067  
C       3.553746       -2.060833       -1.443320  
C       4.333810       -2.694128       -2.417874  
H       5.138444       -2.137630       -2.890651  
C       4.091526       -4.019593       -2.782780  
H       2.856968       -5.780535       -2.485234  
H       4.712620       -4.486624       -3.541472  
Rh      -0.124265       -0.541779        0.591711  
C       1.054257        4.871661        0.720683  
C       0.800536        3.675830        1.409147  
C       0.089770        2.654219        0.785417  
C      -0.383256        2.821595       -0.523548  
C      -0.135117        4.021765       -1.189459  
C       0.584786        5.054935       -0.575916  
O       1.775482        5.800406        1.404056  
H       1.167757        3.568304        2.425370  
H      -0.917212        2.010260       -1.005590  
O      -0.546980        4.282661       -2.459922  
H       0.772151        5.961667       -1.139245  
C      -0.215697        1.439653        1.601669  
H      -1.125237        1.522638        2.201685  
C       2.268007        0.924746        2.079315  
H       2.873663        0.020748        2.194134  
H       2.495328        1.371426        1.110570  
H       2.592467        1.635236        2.853003  
N       0.443108       -0.048269        3.419616  
H       0.860024        0.294666        4.277183  
C       0.805892        0.623594        2.186711  
C      -0.459960       -1.041643        3.501802  
O      -0.977265       -1.537556        2.473261  
C       3.846873       -0.652009       -1.061356  
C      -4.123596       -0.122015        0.138684  
H      -1.269336        0.595085        0.492367  
H       0.537804        0.131472       -0.637417  
C      -0.797256       -1.574696        4.856080  
H      -1.877375       -1.712360        4.931340  
H      -0.341293       -2.561090        4.978910  
H      -0.456616       -0.929121        5.666266  
C      -1.260684        3.255908       -3.133967  
H      -0.644292        2.355038       -3.250773  
H      -2.181418        2.993960       -2.600068  
H      -1.511015        3.656959       -4.115814  
C       2.107226        6.999022        0.716475  
H       2.711706        6.788794       -0.173798  
H       1.208036        7.551535        0.421606  
H       2.687314        7.597270        1.417404  
C      -3.863565        0.693535        1.262321  
C      -4.433981        0.459174       -1.110638  
C      -4.105237        2.690146       -0.145563  
C      -4.424415        1.896089       -1.249034  
C      -3.842558        2.129115        1.107293  
C      -3.595652        0.155774        2.556256  
C      -3.560889        2.945316        2.241525  
H      -4.077563        3.773135       -0.258902  
C      -4.751680        2.470882       -2.512324  
C      -4.792324       -0.320952       -2.251811  
C       4.743709       -0.384722       -0.005841  
C       3.272100        0.404409       -1.797574  
C       4.520110        2.020796       -0.437663  
C       3.617639        1.768367       -1.475103  
C       5.083825        0.983147        0.309117  
C       5.330590       -1.421659        0.779706  
C       5.965800        1.240362        1.398089  
H       4.776757        3.051217       -0.195646  
C       3.035272        2.824396       -2.233977  
C       2.353923        0.177162       -2.865698  
C       1.817715        1.222357       -3.573196  
C       2.163419        2.562813       -3.257409  
H       3.299545        3.848931       -1.980441  
H       2.086645       -0.846340       -3.117720  
H       1.122201        1.024094       -4.385604  
H       1.724709        3.380902       -3.821856  
C       6.488784        0.216025        2.143088  
C       6.169190       -1.130668        1.825474  
H       5.099070       -2.457452        0.541758  
H       6.207832        2.274983        1.630452  
H       7.153386        0.428817        2.975438  
H       6.598213       -1.936543        2.414563  
C      -5.101722        0.270932       -3.448851  
C      -5.077063        1.684322       -3.585624  
H      -4.739681        3.555052       -2.602075  
H      -4.822467       -1.403904       -2.161568  
H      -5.374502       -0.344817       -4.301139  
H      -5.326528        2.137556       -4.540853  
C      -3.333940        2.389250        3.473738  
C      -3.352303        0.977375        3.628578  
H      -3.575342       -0.923121        2.682694  
H      -3.537444        4.024345        2.105313  
H      -3.131323        3.022702        4.332539  
H      -3.168338        0.548048        4.610312  
