117
F:47-60;
P       1.590152       -2.347150        0.481981  
C       0.719956       -3.931994       -0.011645  
O       1.692621       -4.730166       -0.716513  
H       0.418637       -4.499887        0.873370  
P      -1.217298       -1.968328       -0.848664  
C      -0.510496       -3.709526       -0.904283  
O      -1.551922       -4.628223       -0.521342  
H      -0.230128       -3.948306       -1.937390  
C      -1.307744       -1.465055       -2.594795  
C       2.576511       -2.854482        1.935407  
H      -1.945410       -2.131949       -3.179778  
H      -1.682916       -0.440611       -2.661609  
H      -0.290163       -1.480060       -2.996787  
H       3.119981       -3.781026        1.731772  
H       3.298336       -2.068911        2.177662  
H       1.916863       -2.998874        2.794779  
C      -2.797721       -2.620872       -0.289154  
C      -2.714408       -4.013210       -0.162742  
C      -3.782898       -4.764912        0.320291  
H      -3.700382       -5.843586        0.398884  
C      -3.960442       -1.940459        0.114026  
C      -5.027010       -2.694812        0.608500  
H      -5.936373       -2.185334        0.915740  
C      -4.935230       -4.086365        0.702527  
H      -5.779401       -4.651971        1.086238  
C       2.719576       -2.603420       -0.910412  
C       2.618090       -3.937159       -1.338854  
C       3.438344       -4.450392       -2.337548  
C       3.654379       -1.743716       -1.502295  
C       4.472529       -2.258406       -2.515330  
H       5.197202       -1.601515       -2.988766  
C       4.367813       -3.590792       -2.916990  
H       3.341329       -5.485008       -2.649239  
H       5.016469       -3.964399       -3.703985  
Rh      -0.048025       -0.665985        0.647141  
C       0.458142        4.864220        0.942831  
C       0.414564        3.615400        1.566887  
C      -0.198746        2.536345        0.923079  
C      -0.760404        2.710770       -0.340225  
C      -0.734453        3.969885       -0.943689  
C      -0.124590        5.060087       -0.314985  
O       1.087569        5.849272        1.639952  
H       0.850976        3.508387        2.555178  
H      -1.227418        1.885935       -0.870443  
O      -1.337184        4.043557       -2.160638  
H      -0.094259        6.029869       -0.795155  
C      -0.331234        1.265238        1.696581  
H      -1.229742        1.223973        2.317891  
C       2.207882        1.016722        2.099789  
H       2.912520        0.182598        2.175460  
H       2.354262        1.501813        1.134012  
H       2.476975        1.743760        2.879553  
N       0.535443       -0.166727        3.469541  
H       0.951529        0.194817        4.319461  
C       0.791272        0.555800        2.239869  
C      -0.309398       -1.209965        3.560249  
O      -0.820971       -1.719164        2.535666  
C       3.807878       -0.318749       -1.098378  
C      -4.046576       -0.460795       -0.005618  
H      -1.279980        0.372529        0.556813  
H       0.553996        0.084600       -0.565043  
C      -0.600749       -1.770738        4.913243  
H      -0.299536       -2.820473        4.940287  
H      -0.100821       -1.233538        5.719530  
H      -1.679758       -1.744455        5.083848  
C      -1.362483        5.307083       -2.805569  
H      -1.904242        6.048896       -2.206923  
H      -0.348887        5.676878       -3.005106  
H      -1.883088        5.152486       -3.750338  
C       1.164908        7.133629        1.038434  
H       1.716319        7.097220        0.091617  
H       0.167590        7.552668        0.862334  
H       1.701973        7.764333        1.745406  
C      -4.246333        0.121794       -1.276027  
C      -3.910493        0.354739        1.141092  
C      -4.063786        2.352968       -0.276000  
C      -3.923752        1.790787        0.995538  
C      -4.229763        1.558898       -1.411949  
C      -4.492265       -0.658005       -2.446785  
C      -4.384757        2.133211       -2.707155  
H      -4.029348        3.436178       -0.385258  
C      -3.768245        2.607171        2.153619  
C      -3.725138       -0.183059        2.449647  
C       3.085306        0.680748       -1.783067  
C       4.735921        0.030501       -0.095537  
C       4.233737        2.403879       -0.467525  
C       4.949144        1.422752        0.224012  
C       3.302783        2.069653       -1.454903  
C       2.135785        0.371557       -2.801778  
C       2.566031        3.067200       -2.156797  
H       4.391142        3.452763       -0.219601  
C       5.869886        1.759333        1.257643  
C       5.477684       -0.947754        0.632404  
C       6.350333       -0.582087        1.625310  
C       6.548807        0.787294        1.945534  
H       6.016698        2.811211        1.493242  
H       5.339257       -1.999552        0.391352  
H       6.899275       -1.344905        2.170396  
H       7.243524        1.059323        2.735020  
C       1.664525        2.726514       -3.129854  
C       1.443594        1.361767       -3.451455  
H       1.970982       -0.671803       -3.060848  
H       2.732789        4.110523       -1.895463  
H       1.108947        3.496696       -3.656222  
H       0.721183        1.103115       -4.221641  
C      -3.594870        0.637427        3.542196  
C      -3.618820        2.049978        3.397263  
H      -3.771199        3.687867        2.025290  
H      -3.678133       -1.261454        2.573331  
H      -3.466829        0.205390        4.531160  
H      -3.508246        2.683900        4.272552  
C      -4.590965        1.346091       -3.809289  
C      -4.662254       -0.065585       -3.671457  
H      -4.543521       -1.740284       -2.357233  
H      -4.341724        3.216418       -2.796840  
H      -4.713051        1.797701       -4.789464  
H      -4.851030       -0.680365       -4.547215  
