117
F:47-60;
P       1.273333       -2.367608        0.586594  
C       0.173908       -3.830052        0.205309  
O       1.025695       -4.846788       -0.362454  
H      -0.255637       -4.243816        1.122565  
P      -1.485601       -1.693083       -0.770544  
C      -0.953773       -3.498269       -0.782504  
O      -2.104845       -4.306812       -0.477580  
H      -0.623652       -3.775039       -1.790832  
C      -1.650549       -1.237975       -2.525095  
C       2.145024       -2.915988        2.098284  
H      -2.330132       -1.909566       -3.055747  
H      -2.022648       -0.212086       -2.597331  
H      -0.656326       -1.273941       -2.979716  
H       2.501182       -3.943411        1.985142  
H       3.004841       -2.267123        2.285982  
H       1.468304       -2.858325        2.954463  
C      -3.093263       -2.179903       -0.121647  
C      -3.163224       -3.575456       -0.024238  
C      -4.282529       -4.213257        0.504691  
H      -4.317622       -5.295774        0.564260  
C      -4.162139       -1.384868        0.324338  
C      -5.278381       -2.024806        0.868452  
H      -6.116171       -1.423839        1.211642  
C      -5.331742       -3.418635        0.954299  
H      -6.212041       -3.893585        1.377753  
C       2.364601       -2.930071       -0.744777  
C       2.073230       -4.273402       -1.031048  
C       2.822903       -5.005109       -1.944910  
C       3.416401       -2.281148       -1.403625  
C       4.165971       -3.015157       -2.330067  
H       4.977768       -2.522781       -2.858306  
C       3.875623       -4.356540       -2.585657  
H       2.577831       -6.041555       -2.150820  
H       4.471543       -4.903332       -3.310584  
Rh      -0.125176       -0.467972        0.632100  
C       1.617792        4.725816        0.456201  
C       1.230858        3.618991        1.221070  
C       0.309139        2.706040        0.697588  
C      -0.251305        2.914716       -0.564901  
C       0.128509        4.040589       -1.305454  
C       1.062362        4.944866       -0.801992  
O       2.549130        5.632426        0.861020  
H       1.641746        3.458927        2.210457  
H      -0.947741        2.187356       -0.968123  
O      -0.338416        4.316429       -2.553112  
H       1.375431        5.794811       -1.399025  
C      -0.090291        1.558390        1.569551  
H      -0.990402        1.733565        2.164349  
C       2.352527        0.867688        2.091814  
H       2.880384       -0.084157        2.200769  
H       2.625717        1.301975        1.130261  
H       2.730505        1.537750        2.877840  
N       0.450101        0.092958        3.445016  
H       0.877710        0.447441        4.292545  
C       0.868526        0.689339        2.189966  
C      -0.494793       -0.857892        3.554825  
O      -1.020326       -1.371349        2.539726  
C       3.718403       -0.842336       -1.174898  
C      -4.134899        0.092487        0.154725  
H      -1.195442        0.742335        0.523261  
H       0.558583        0.125059       -0.625781  
C      -0.869487       -1.322975        4.924304  
H      -1.950693       -1.460653        4.975885  
H      -0.413299       -2.299659        5.109476  
H      -0.552595       -0.636661        5.710531  
C      -1.306556        3.428626       -3.092269  
H      -0.902955        2.413014       -3.203251  
H      -2.200504        3.391370       -2.460728  
H      -1.568335        3.824711       -4.073270  
C       3.209674        5.379208        2.092658  
H       2.510474        5.407456        2.936160  
H       3.718771        4.406565        2.077190  
H       3.946068        6.173086        2.207625  
C      -3.833655        0.939533        1.243588  
C      -4.439235        0.636817       -1.112762  
C      -4.040781        2.891021       -0.230934  
C      -4.393840        2.067197       -1.301887  
C      -3.769493        2.367353        1.035980  
C      -3.568563        0.441363        2.553794  
C      -3.439456        3.214487        2.133767  
H      -3.990941        3.968760       -0.382067  
C      -4.716815        2.605301       -2.582467  
C      -4.822937       -0.173552       -2.224354  
C       3.100461        0.125642       -1.994402  
C       4.644429       -0.456827       -0.184562  
C       4.348421        1.891746       -0.834403  
C       4.964719        0.941606       -0.015412  
C       3.425411        1.520674       -1.816623  
C       2.151503       -0.221348       -3.002342  
C       2.804137        2.485975       -2.660816  
H       4.584250        2.947144       -0.698924  
C       5.881509        1.318820        1.007811  
C       5.276805       -1.401890        0.678428  
C       6.148536       -0.995995        1.656627  
C       6.454855        0.380611        1.826222  
H       6.112298        2.375379        1.127710  
H       5.056752       -2.459804        0.550501  
H       6.613905       -1.732207        2.306157  
H       7.148377        0.684529        2.605094  
C       1.905793        2.109954       -3.623903  
C       1.570003        0.740631       -3.788583  
H       1.897683       -1.269624       -3.145804  
H       3.054460        3.534687       -2.516099  
H       1.440357        2.860013       -4.257295  
H       0.848222        0.454815       -4.550369  
C      -5.122308        0.383170       -3.440602  
C      -5.065084        1.790155       -3.626441  
H      -4.681581        3.685160       -2.710440  
H      -4.877572       -1.251627       -2.096175  
H      -5.411743       -0.255237       -4.270548  
H      -5.308458        2.215860       -4.595762  
C      -3.207631        2.696317        3.381183  
C      -3.276307        1.292816        3.589920  
H      -3.596087       -0.631366        2.723769  
H      -3.381969        4.286279        1.956720  
H      -2.966794        3.353272        4.212070  
H      -3.093481        0.894030        4.584758  
