117
F:55-60;
P       1.010666       -0.439331        1.587576  
C      -0.102938       -1.045841        2.953420  
O       0.733462       -1.634291        3.962880  
H      -0.655122       -0.224712        3.422813  
P      -1.866189       -1.519476        0.830447  
C      -1.069036       -2.098925        2.412261  
O      -2.107941       -2.357276        3.372488  
H      -0.532293       -3.041674        2.253504  
C      -2.271549       -3.051829       -0.069296  
C       1.767129        1.070442        2.279360  
H      -2.815147       -3.752971        0.569322  
H      -2.882461       -2.802896       -0.940364  
H      -1.339978       -3.502383       -0.422276  
H       2.186639        0.872918        3.269202  
H       2.560160        1.416411        1.608710  
H       1.008706        1.855743        2.339755  
C      -3.329539       -1.080457        1.793395  
C      -3.236842       -1.648645        3.072494  
C      -4.256060       -1.507239        4.008518  
H      -4.162513       -1.957359        4.990983  
C      -4.449763       -0.316545        1.442139  
C      -5.469773       -0.162873        2.385785  
H      -6.340514        0.434063        2.129304  
C      -5.373204       -0.760830        3.644534  
H      -6.177776       -0.628716        4.362008  
C       2.175339       -1.749883        2.083444  
C       1.848416       -2.175169        3.383095  
C       2.621821       -3.102451        4.070389  
C       3.290422       -2.292951        1.433893  
C       4.063391       -3.236853        2.121984  
H       4.923330       -3.674414        1.621852  
C       3.738478       -3.623143        3.422467  
H       2.342924       -3.410614        5.072549  
H       4.355317       -4.357084        3.932867  
Rh      -0.397931       -0.119500       -0.283100  
C       3.220172        3.882999       -0.220727  
C       2.730831        2.728243       -0.837652  
C       1.364108        2.427178       -0.789544  
C       0.497940        3.294975       -0.108578  
C       1.001281        4.436434        0.515782  
C       2.366196        4.746742        0.472281  
O       4.555955        4.096844       -0.346694  
H       3.429386        2.068607       -1.346380  
H      -0.560223        3.077867        0.001973  
O       0.083027        5.200749        1.170001  
H       2.751124        5.634346        0.957196  
C       0.935822        1.176123       -1.441140  
H       1.762666        0.528619       -1.737770  
C      -1.040197        2.206723       -2.743558  
H      -1.982552        1.889066       -3.195891  
H      -1.269665        2.914207       -1.950504  
H      -0.443532        2.733527       -3.497682  
N      -0.189117       -0.008026       -3.250717  
H      -0.404897        0.266832       -4.199877  
C      -0.247907        1.026532       -2.248010  
C       0.043705       -1.311983       -2.986917  
O       0.159617       -1.717647       -1.813328  
C      -4.537626        0.339786        0.112248  
C       3.651226       -1.932946        0.037256  
H      -1.506935        0.416017       -1.363689  
H      -0.934991        1.029404        0.610178  
C       0.143086       -2.234020       -4.156925  
H       1.151675       -2.188009       -4.578106  
H      -0.038140       -3.256843       -3.829102  
H      -0.562678       -1.965835       -4.946055  
C       0.552265        6.357500        1.847079  
H       1.277607        6.097139        2.626604  
H       1.007887        7.070969        1.151003  
H      -0.324821        6.811733        2.306679  
C       5.122750        5.181718        0.370643  
H       4.738604        6.144610        0.014150  
H       4.930946        5.090035        1.446418  
H       6.196258        5.132209        0.188246  
C       3.279465       -2.805564       -1.007025  
C       4.437076       -0.791764       -0.224358  
C       4.471078       -1.377583       -2.606770  
C       4.856381       -0.513684       -1.577977  
C       3.705803       -2.520027       -2.355201  
C       2.503960       -3.981073       -0.780452  
C       3.365179       -3.435580       -3.392563  
H       4.804387       -1.174625       -3.623453  
C       5.695821        0.613113       -1.821701  
C       4.881985        0.084946        0.810791  
C      -4.125656        1.681597       -0.021843  
C      -5.032563       -0.375763       -0.996916  
C      -4.733813        1.615346       -2.396604  
C      -5.117577        0.276139       -2.281860  
C      -4.245362        2.334384       -1.302014  
C      -3.569857        2.423199        1.064116  
C      -3.838765        3.695924       -1.421646  
H      -4.814569        2.110156       -3.363590  
C      -5.603805       -0.463846       -3.399016  
C      -5.465111       -1.732643       -0.900309  
C      -5.926469       -2.409608       -1.999629  
C      -5.993330       -1.771053       -3.266344  
H      -5.662070        0.037072       -4.362793  
H      -5.423749       -2.230450        0.066159  
H      -6.247970       -3.442949       -1.903204  
H      -6.361598       -2.322135       -4.126955  
C      -3.310815        4.373120       -0.354101  
C      -3.170035        3.724497        0.901905  
H      -3.457577        1.938381        2.031077  
H      -3.937470        4.179240       -2.391604  
H      -2.988531        5.405127       -0.463666  
H      -2.733792        4.266462        1.736087  
C       5.685460        1.160480        0.533035  
C       6.103220        1.426278       -0.797739  
H       6.010758        0.809126       -2.844329  
H       4.585384       -0.120373        1.836944  
H       6.006793        1.819711        1.335653  
H       6.735483        2.285876       -0.998739  
C       2.637962       -4.566663       -3.128441  
C       2.195544       -4.836497       -1.806747  
H       2.154980       -4.195287        0.227169  
H       3.702068       -3.216524       -4.404010  
H       2.388956       -5.255952       -3.930898  
H       1.605787       -5.727796       -1.610336  
