117
F:55-60;
P       1.098254       -0.364130        1.655485  
C       0.001873       -0.918524        3.059899  
O       0.852578       -1.531063        4.044825  
H      -0.506852       -0.076831        3.540304  
P      -1.765078       -1.420212        0.926796  
C      -1.007325       -1.943963        2.548934  
O      -2.060916       -2.141998        3.507275  
H      -0.500577       -2.909153        2.425490  
C      -1.934883       -2.996992        0.024161  
C       1.952290        1.097306        2.337590  
H      -2.525200       -3.716675        0.597759  
H      -2.404340       -2.825660       -0.946637  
H      -0.927557       -3.387447       -0.150547  
H       2.405381        0.863185        3.304212  
H       2.728291        1.424388        1.638673  
H       1.230112        1.911903        2.444666  
C      -3.308506       -1.076403        1.794349  
C      -3.226648       -1.554094        3.110014  
C      -4.295272       -1.435784        3.994249  
H      -4.212492       -1.818690        5.005826  
C      -4.460402       -0.404299        1.357431  
C      -5.529676       -0.276810        2.248333  
H      -6.426595        0.245600        1.926963  
C      -5.446983       -0.800013        3.541174  
H      -6.291079       -0.691370        4.215974  
C       2.198338       -1.742210        2.105490  
C       1.907076       -2.141755        3.420965  
C       2.652807       -3.115552        4.073003  
C       3.236568       -2.360669        1.399725  
C       3.980037       -3.352237        2.051235  
H       4.781119       -3.849309        1.511068  
C       3.698021       -3.710336        3.370270  
H       2.406729       -3.404205        5.089403  
H       4.290271       -4.481988        3.853248  
Rh      -0.356752        0.060280       -0.161225  
C       3.457990        3.911477       -0.202393  
C       2.868116        2.800577       -0.825288  
C       1.504662        2.551519       -0.672706  
C       0.727678        3.418434        0.119687  
C       1.330060        4.505133        0.745277  
C       2.700129        4.765814        0.592663  
O       4.785724        4.075922       -0.436359  
H       3.491804        2.143040       -1.424828  
H      -0.318031        3.196163        0.290366  
O       0.662116        5.376626        1.551307  
H       3.127787        5.623878        1.097938  
C       0.956388        1.359177       -1.339493  
H       1.720308        0.689517       -1.737450  
C      -1.047181        2.581378       -2.407311  
H      -1.970412        2.344861       -2.940297  
H      -1.314698        3.165535       -1.529383  
H      -0.415156        3.207997       -3.046377  
N      -0.365921        0.358975       -3.125993  
H      -0.668123        0.696688       -4.030074  
C      -0.291154        1.325309       -2.059666  
C      -0.148862       -0.963335       -2.958372  
O       0.071222       -1.437541       -1.825019  
C      -4.500282        0.204602        0.003524  
C       3.527775       -2.014540       -0.016149  
H      -1.515738        0.693515       -1.130659  
H      -0.814269        1.154463        0.842530  
C      -0.197948       -1.824240       -4.176073  
H      -0.523285       -2.826550       -3.896844  
H      -0.862193       -1.418286       -4.941529  
H       0.804992       -1.906049       -4.605317  
C      -0.727285        5.150631        1.732485  
H      -1.265242        5.194710        0.776906  
H      -0.916256        4.177021        2.203633  
H      -1.081483        5.945897        2.387383  
C       5.440576        5.142198        0.233538  
H       5.030211        6.113975       -0.064326  
H       5.362851        5.034924        1.321854  
H       6.487407        5.085028       -0.063311  
C       4.353111       -0.912319       -0.321612  
C       3.018426       -2.839868       -1.040240  
C       4.161970       -1.449379       -2.707431  
C       3.350198       -2.548967       -2.413961  
C       4.680781       -0.632103       -1.699716  
C       4.918186       -0.074716        0.687368  
C       5.561245        0.450997       -1.992415  
H       4.421627       -1.242208       -3.744561  
C       2.861565       -3.410997       -3.437194  
C       2.188883       -3.969820       -0.773165  
C      -4.664534       -0.607252       -1.138429  
C      -4.334565        1.600470       -0.125750  
C      -4.460980        1.376084       -2.565121  
C      -4.347436        2.197155       -1.439441  
C      -4.606032       -0.008949       -2.450744  
C      -4.910155       -2.009787       -1.050860  
C      -4.717805       -0.848766       -3.596833  
H      -4.442724        1.827958       -3.556290  
C      -4.207695        3.610369       -1.558858  
C      -4.131474        2.457920        0.997436  
C      -3.989275        3.812530        0.839021  
C      -4.035427        4.400439       -0.453265  
H      -4.226136        4.047114       -2.555386  
H      -4.093472        2.025158        1.993524  
H      -3.842834        4.445547        1.710496  
H      -3.926207        5.476201       -0.559561  
C      -4.919663       -2.198549       -3.467798  
C      -5.034990       -2.780924       -2.177923  
H      -4.993996       -2.468489       -0.068110  
H      -4.654513       -0.389208       -4.580874  
H      -5.008361       -2.825217       -4.350584  
H      -5.220542       -3.847486       -2.085638  
C       1.734811       -4.772337       -1.787932  
C       2.078427       -4.494759       -3.136829  
H       3.128260       -3.188997       -4.468589  
H       1.919980       -4.196840        0.256001  
H       1.106024       -5.628872       -1.559880  
H       1.714208       -5.142998       -3.929301  
C       6.087189        1.224835       -0.992612  
C       5.753151        0.962833        0.362136  
H       4.686029       -0.277096        1.730577  
H       5.808243        0.646553       -3.033618  
H       6.748085        2.053081       -1.229854  
H       6.165141        1.594275        1.145421  
