83
mapping.R.ts1 optimized geometry
C      -7.160329       -0.946654       -0.431746  
C      -6.203883       -1.953639       -0.502008  
C      -4.829965       -1.647888       -0.421774  
C      -4.404262       -0.304794       -0.262748  
C      -5.384631        0.693317       -0.189876  
C      -6.744085        0.382290       -0.278408  
H      -4.206928       -3.716718       -0.656614  
H      -8.217793       -1.187237       -0.496653  
H      -6.502944       -2.992027       -0.625638  
C      -3.844802       -2.696182       -0.543289  
C      -2.939073        0.016622       -0.054227  
H      -5.092303        1.729977       -0.060370  
H      -7.480150        1.180359       -0.226206  
C      -1.980866       -1.094301       -0.489968  
C      -2.510171       -2.447127       -0.571554  
O      -0.785544       -0.842145       -0.718714  
H       0.887897       -1.808815       -0.568490  
C      -2.765157        0.099827        1.574240  
C      -1.446861        0.552879        2.045553  
H      -3.021137       -0.880784        1.983450  
H      -3.528993        0.825494        1.874295  
H      -1.178452        1.598200        2.074038  
N      -0.485398       -0.288775        2.433262  
O       0.670447        0.216435        2.825783  
O      -0.638493       -1.555983        2.449580  
C      -2.518844        1.366686       -0.652199  
H      -1.810832       -3.257711       -0.744378  
H      -1.447931        1.501986       -0.507116  
H      -2.737282        1.400760       -1.724912  
H      -3.040622        2.191902       -0.159246  
C       2.249900        0.823303       -0.195620  
N       1.469346        1.819310        0.288821  
N       2.297180       -0.258676        0.639670  
H       1.758064       -0.175147        1.520464  
H       1.052606        1.613358        1.193908  
C       1.188117        3.188707       -0.230685  
C       3.194675       -1.407695        0.605625  
C       2.919103       -2.361831       -0.572380  
C       4.694966       -1.049544        0.664486  
H       2.967721       -1.951225        1.529683  
C       3.786273       -3.619391       -0.495800  
C       5.564611       -2.311157        0.727249  
H       4.952145       -0.461069       -0.220395  
H       4.852211       -0.419556        1.546911  
C       5.274075       -3.229367       -0.468439  
H       3.580304       -4.274094       -1.348831  
H       3.557113       -4.176134        0.420935  
H       6.623960       -2.029662        0.742933  
H       5.357993       -2.858803        1.658303  
H       5.882556       -4.139120       -0.416732  
H       5.533248       -2.710852       -1.401259  
H       3.116767       -1.817642       -1.498013  
N       1.425334       -2.693833       -0.640720  
C       0.936325       -3.555012        0.485900  
C       1.052865       -3.276985       -1.969238  
H      -0.145712       -3.626489        0.402570  
H       1.396690       -4.538941        0.403544  
H       1.174078       -3.070031        1.430525  
H       1.425663       -2.611678       -2.749483  
H       1.495832       -4.268923       -2.060610  
H      -0.034261       -3.337655       -2.017056  
S       3.055611        0.872011       -1.707842  
C       2.507202        4.002473       -0.203498  
C       0.150589        3.798561        0.747707  
C       0.590066        3.109066       -1.676517  
H       2.907166        3.969849        0.816443  
H       3.222622        3.481518       -0.845950  
H      -0.118762        4.784333        0.362630  
H      -0.759412        3.191405        0.694304  
H       0.145988        2.117453       -1.799716  
H       1.419907        3.156225       -2.386292  
C       2.377497        5.459328       -0.662160  
C      -0.463884        4.161128       -2.061079  
C       0.590407        3.954739        2.211275  
H       3.348359        5.963038       -0.584162  
H       2.053130        5.516614       -1.706518  
H       1.658922        6.018219       -0.051035  
H       1.447990        4.630366        2.297407  
H      -0.234067        4.382213        2.794099  
H       0.860540        3.000742        2.679072  
H      -0.096588        5.184524       -1.933205  
H      -0.732195        4.027971       -3.116246  
H      -1.378528        4.054837       -1.468267  
