83
mapping.R.ts4 optimized geometry
C       6.544632        0.140924       -0.005051  
C       5.399714        0.927344       -0.094381  
C       4.140590        0.337953       -0.317286  
C       4.024712       -1.070143       -0.443885  
C       5.186145       -1.843477       -0.348778  
C       6.435132       -1.248290       -0.139969  
H       3.082215        2.236410       -0.329145  
H       7.514020        0.601340        0.165051  
H       5.463740        2.008725        0.002872  
C       2.964102        1.163901       -0.475591  
C       2.646593       -1.682561       -0.518850  
H       5.131052       -2.923418       -0.433704  
H       7.322477       -1.873083       -0.079496  
C       1.579855       -0.752839       -1.078413  
C       1.765120        0.666761       -0.877897  
O       0.550614       -1.198858       -1.627700  
H      -0.950763       -2.011117       -1.307272  
C       2.178126       -1.929684        1.053160  
C       2.393646       -0.852821        2.027842  
H       1.126117       -2.228158        1.000572  
H       2.787531       -2.793518        1.341179  
H       3.345237       -0.719850        2.523767  
N       1.459012        0.045106        2.370766  
O       1.692941        0.937481        3.251682  
O       0.279843        0.011490        1.810419  
C       2.599977       -3.055291       -1.199837  
H       0.920017        1.312464       -1.086301  
H       2.922731       -2.981579       -2.243863  
H       3.242667       -3.770260       -0.679042  
H       1.579450       -3.439692       -1.179226  
C      -2.283912        0.943119       -0.207263  
N      -1.379977        1.862469        0.193684  
N      -1.986275       -0.333484        0.206875  
H      -1.146532       -0.436180        0.780853  
H      -0.653886        1.501878        0.816967  
C      -1.201521        3.291190       -0.212903  
C      -2.970235       -1.386821        0.391795  
C      -2.374516       -2.753712        0.018929  
C      -3.488016       -1.438201        1.842764  
H      -3.813910       -1.172075       -0.268708  
C      -3.426643       -3.858476        0.145142  
C      -4.529164       -2.551342        2.021025  
H      -2.635235       -1.603936        2.515200  
H      -3.913785       -0.457862        2.081714  
C      -3.955511       -3.908050        1.590397  
H      -2.998839       -4.828799       -0.122611  
H      -4.257385       -3.651664       -0.540424  
H      -4.858663       -2.593102        3.065503  
H      -5.411307       -2.319343        1.408348  
H      -4.715863       -4.692866        1.667576  
H      -3.129830       -4.184314        2.260560  
H      -1.535006       -2.973290        0.689256  
N      -1.725812       -2.706635       -1.364026  
C      -2.634368       -2.244240       -2.463946  
C      -1.069014       -4.003475       -1.725336  
H      -2.057809       -2.255087       -3.390479  
H      -3.477079       -2.932845       -2.536081  
H      -2.971378       -1.229842       -2.240952  
H      -0.479581       -4.344246       -0.872629  
H      -1.835208       -4.736533       -1.978026  
H      -0.421220       -3.814856       -2.581603  
S      -3.666764        1.256486       -1.169960  
C      -2.410686        4.107837        0.308602  
C      -1.067059        3.369416       -1.770051  
C       0.107832        3.757500        0.473295  
H      -3.309370        3.695862       -0.156166  
H      -2.497653        3.926502        1.385528  
H      -0.654417        2.415710       -2.118444  
H      -2.074496        3.430317       -2.190553  
H       0.322285        4.766958        0.115955  
H       0.927100        3.122905        0.116550  
C      -2.347790        5.616925        0.044783  
C       0.099206        3.769838        2.007881  
C      -0.199235        4.498971       -2.349108  
H      -3.203785        6.110245        0.520641  
H      -1.433728        6.068046        0.448143  
H      -2.392087        5.837114       -1.027155  
H       0.855343        4.374871       -2.079534  
H      -0.269469        4.479737       -3.443444  
H      -0.518219        5.488251       -2.007782  
H      -0.653424        4.467148        2.391375  
H      -0.085541        2.777561        2.431160  
H       1.079622        4.095077        2.374512  
