83
mapping.R.ts5 optimized geometry
C       6.134687       -0.612677       -0.498139  
C       5.022611       -0.015457       -1.080420  
C       3.749237       -0.613878       -0.981788  
C       3.588635       -1.838657       -0.286395  
C       4.722200       -2.421361        0.295592  
C       5.979715       -1.822127        0.192838  
H       2.769692        0.967905       -2.098485  
H       7.112711       -0.145976       -0.575353  
H       5.117389        0.925646       -1.617398  
C       2.604706        0.024090       -1.585229  
C       2.217907       -2.455082       -0.103124  
H       4.627290       -3.353547        0.843633  
H       6.840202       -2.298772        0.655102  
C       1.108376       -1.783675       -0.905677  
C       1.352691       -0.499844       -1.525361  
O      -0.005831       -2.338064       -0.980406  
H      -1.713888       -1.733148       -0.957463  
C       1.826090       -2.209576        1.465978  
C       0.513159       -2.742802        1.866667  
H       1.891704       -1.138876        1.667250  
H       2.630697       -2.720478        2.007124  
H       0.318727       -3.804965        1.923849  
N      -0.561441       -1.971337        2.051346  
O      -1.715782       -2.486084        2.293029  
O      -0.459286       -0.664784        2.014742  
C       2.218820       -3.975587       -0.365005  
H       0.508132       -0.002083       -1.991816  
H       1.208979       -4.367845       -0.227984  
H       2.547877       -4.184999       -1.388816  
H       2.890757       -4.486147        0.330809  
C      -1.230347        1.715846       -0.343816  
N      -0.020512        1.834312        0.248044  
N      -1.860576        0.535087       -0.043155  
H      -1.456740        0.013733        0.760010  
H       0.237316        1.045031        0.830958  
C       0.952349        2.964347        0.291235  
C      -3.290459        0.320037       -0.213235  
C      -3.584957       -1.185526       -0.165698  
C      -4.107603        1.020940        0.891889  
H      -3.594703        0.733468       -1.179240  
C      -5.077518       -1.460061       -0.368169  
C      -5.609803        0.761206        0.727963  
H      -3.762207        0.644208        1.863961  
H      -3.880311        2.090331        0.842145  
C      -5.895119       -0.746507        0.723226  
H      -5.276021       -2.534960       -0.330996  
H      -5.391812       -1.091060       -1.352235  
H      -6.167341        1.251965        1.534218  
H      -5.951358        1.199482       -0.220492  
H      -6.960856       -0.941720        0.559462  
H      -5.628618       -1.169121        1.701341  
H      -3.256109       -1.573308        0.804850  
N      -2.712111       -1.951133       -1.161096  
C      -2.916306       -1.572137       -2.593793  
C      -2.815743       -3.435018       -0.964104  
H      -2.189298       -2.129746       -3.186247  
H      -3.931732       -1.832695       -2.893212  
H      -2.741328       -0.501518       -2.700746  
H      -2.641016       -3.637603        0.094535  
H      -3.803757       -3.771405       -1.278115  
H      -2.039817       -3.900477       -1.571739  
S      -1.911579        2.859705       -1.413017  
C       0.300165        4.158943        1.035839  
C       1.473912        3.310929       -1.156041  
C       2.160952        2.416781        1.102568  
H      -0.451383        4.601906        0.378038  
H      -0.238620        3.753613        1.899842  
H       2.567503        3.221720       -1.148192  
H       1.106914        2.528622       -1.824938  
H       2.929809        3.195213        1.077992  
H       2.569174        1.560359        0.553639  
C       1.281084        5.235002        1.526993  
C       1.892619        2.013459        2.560372  
C       1.116225        4.669950       -1.777243  
H       0.725874        6.106172        1.894213  
H       1.902568        4.861600        2.348002  
H       1.953599        5.574013        0.734072  
H       1.613952        5.504679       -1.274664  
H       1.442251        4.674689       -2.825123  
H       0.036786        4.837646       -1.757873  
H       1.475536        2.847058        3.135043  
H       1.201828        1.166740        2.643078  
H       2.834901        1.712972        3.033778  
