91
F:47-61;
P      -2.535608       -0.229086       -0.714560  
C      -2.495311       -2.084354       -0.431649  
O      -3.524531       -2.411604        0.520170  
H      -2.714568       -2.622818       -1.363041  
P       0.016091       -1.210595        0.680869  
C      -1.156083       -2.569237        0.088910  
O      -0.466306       -3.254742       -0.969098  
H      -1.328933       -3.284363        0.905680  
C       0.016597       -1.338536        2.558257  
C      -2.949972       -0.032855       -2.536709  
C       0.428014       -2.737265        3.013746  
C       1.008532       -0.311332        3.103430  
C      -1.401846       -1.013488        3.032866  
C      -4.258055       -0.742781       -2.875996  
C      -3.067503        1.460733       -2.838423  
C      -1.781149       -0.631509       -3.321832  
C       1.391037       -2.168419        0.026455  
C       0.891209       -3.161925       -0.827236  
C       1.737918       -4.023710       -1.516881  
H       1.326610       -4.784326       -2.172231  
C       2.769966       -2.046556        0.207030  
C       3.627162       -2.917635       -0.458012  
H       4.699758       -2.834273       -0.308305  
C       3.110482       -3.888156       -1.321169  
H       3.786791       -4.558585       -1.843757  
C      -4.054695       -0.115262        0.242117  
C      -4.354444       -1.363493        0.801460  
C      -5.442230       -1.538233        1.651533  
C      -4.843634        0.992432        0.565598  
C      -5.937487        0.831634        1.411801  
H      -6.561614        1.684511        1.658699  
C      -6.229095       -0.427373        1.946648  
H      -5.657694       -2.516759        2.068401  
H      -7.081692       -0.545731        2.608996  
Rh      -0.573484        0.822305       -0.039005  
C       4.528261        0.364505       -1.176288  
C       3.212926        0.845870       -1.129514  
C       2.699865        1.382351        0.049453  
C       3.512871        1.424483        1.197475  
C       4.816051        0.926818        1.144488  
C       5.338216        0.397401       -0.044051  
O       4.922003       -0.146442       -2.373121  
H       2.595417        0.737094       -2.017287  
H       3.112024        1.846223        2.113408  
O       5.668912        0.913237        2.205105  
H       6.353023        0.017112       -0.041741  
C       1.321542        1.967758        0.123235  
H       1.097505        2.183157        1.179570  
C       0.964789        3.163382       -2.152595  
H       0.916395        4.148483       -2.623914  
H       1.780688        2.608415       -2.620343  
H       0.029469        2.630616       -2.354560  
N       0.188919        4.171443       -0.046735  
H       0.482174        5.096435        0.231877  
C       1.201733        3.295249       -0.653908  
C      -1.113041        3.886208        0.039842  
O      -1.587801        2.770748       -0.291974  
H       3.175447       -1.278710        0.862745  
H      -4.599456        1.971106        0.158591  
H       2.144565        3.836432       -0.502644  
H       0.673356        0.818011       -0.974504  
C      -2.035010        4.947956        0.547258  
H      -2.572291        4.572428        1.420980  
H      -1.520614        5.872681        0.810726  
H      -2.781418        5.164436       -0.220492  
H      -1.663491       -1.706296       -3.142789  
H      -1.956698       -0.494984       -4.394386  
H      -0.834507       -0.140744       -3.065480  
H      -2.136923        1.990446       -2.612749  
H      -3.291196        1.596500       -3.902378  
H      -3.871932        1.935386       -2.266252  
H      -5.105835       -0.319735       -2.328445  
H      -4.458829       -0.624647       -3.946772  
H      -4.224960       -1.818519       -2.673139  
H      -2.137376       -1.733201        2.654982  
H      -1.439444       -1.054042        4.126852  
H      -1.715637       -0.008053        2.727136  
H       0.733702        0.710084        2.818304  
H       1.021209       -0.362584        4.197865  
H       2.028757       -0.501482        2.751454  
H       1.442132       -2.991887        2.691932  
H       0.406775       -2.767983        4.108838  
H      -0.249528       -3.519096        2.657940  
C       5.185617        1.427609        3.437938  
H       4.915620        2.486048        3.349449  
H       4.316834        0.860692        3.793409  
H       6.003138        1.319992        4.149140  
C       6.241432       -0.665936       -2.458215  
H       6.987755        0.108954       -2.249883  
H       6.386699       -1.502246       -1.763999  
H       6.359708       -1.020380       -3.481158  
energy=-2586.40379739
