91
F:47-61;
P      -0.080805        0.381048        1.358812  
C      -1.649969        0.327752        2.419659  
O      -1.597228       -0.949897        3.076855  
H      -1.623018        1.109151        3.189293  
P      -2.722053       -0.132514       -0.127807  
C      -2.957696        0.400492        1.658190  
O      -3.436459        1.758026        1.679392  
H      -3.695898       -0.220527        2.176711  
C      -4.256258       -1.123392       -0.583376  
C       0.610159        2.148134        1.408364  
C      -5.515865       -0.458873       -0.029639  
C      -4.340727       -1.184239       -2.109595  
C      -4.074751       -2.522689        0.002774  
C      -0.032564        2.952468        2.538805  
C       2.120580        2.080337        1.637939  
C       0.314603        2.822759        0.068765  
C      -3.054658        1.561690       -0.650504  
C      -3.398579        2.352383        0.451134  
C      -3.684445        3.708282        0.315711  
H      -3.947472        4.300387        1.186150  
C      -2.963101        2.146509       -1.916247  
C      -3.246619        3.501047       -2.068254  
H      -3.181469        3.961528       -3.048919  
C      -3.606296        4.269874       -0.956172  
H      -3.819662        5.327623       -1.079996  
C       0.705157       -0.666504        2.606935  
C      -0.303787       -1.309426        3.339671  
C      -0.016683       -2.294866        4.277449  
C       2.037801       -1.031022        2.819848  
C       2.341641       -2.007556        3.764412  
H       3.377153       -2.279099        3.944097  
C       1.318233       -2.636523        4.480073  
H      -0.819363       -2.769942        4.831696  
H       1.563172       -3.400145        5.212461  
Rh      -0.490362       -0.785345       -0.521779  
C       4.929085        0.162278       -0.029402  
C       3.819932       -0.691335       -0.162394  
C       2.767330       -0.342339       -1.000520  
C       2.838168        0.847975       -1.747044  
C       3.943741        1.684176       -1.611880  
C       4.997777        1.351991       -0.745931  
O       5.888378       -0.258936        0.836293  
H       3.801112       -1.621574        0.398784  
H       2.018119        1.110479       -2.409472  
O       4.091161        2.866528       -2.266705  
H       5.831583        2.038071       -0.656584  
C       1.593788       -1.262992       -1.154327  
H       1.652901       -2.052068       -0.388010  
C       2.940982       -2.312714       -3.066496  
H       2.861217       -2.826308       -4.028810  
H       3.558953       -1.425160       -3.207296  
H       3.458004       -2.969680       -2.358461  
N       0.764968       -3.165932       -2.532020  
H       1.238851       -4.029786       -2.757385  
C       1.558811       -1.934113       -2.548490  
C      -0.559663       -3.195236       -2.380453  
O      -1.211715       -2.162575       -2.080234  
H      -2.662379        1.545217       -2.771042  
H       2.832319       -0.552308        2.255051  
H       1.082520       -1.253274       -3.268192  
H       0.563444        0.071840       -1.286686  
C      -1.275102       -4.491623       -2.577137  
H      -0.644703       -5.267268       -3.012752  
H      -1.656727       -4.844462       -1.615283  
H      -2.139888       -4.323797       -3.222443  
H       0.757060        2.273077       -0.767659  
H      -0.759161        2.920765       -0.118690  
H       0.746443        3.830149        0.077676  
H       2.535732        3.089473        1.534545  
H       2.360035        1.723098        2.643659  
H       2.628989        1.443043        0.909518  
H       0.123720        2.493087        3.520393  
H       0.437096        3.942023        2.564080  
H      -1.106232        3.104887        2.386586  
H      -3.989012       -2.504207        1.095474  
H      -4.943798       -3.141215       -0.247333  
H      -3.183082       -3.010143       -0.404488  
H      -3.441105       -1.620609       -2.551113  
H      -5.197963       -1.805227       -2.393373  
H      -4.502324       -0.191247       -2.542284  
H      -5.634555        0.564549       -0.401058  
H      -6.391167       -1.031362       -0.357214  
H      -5.539227       -0.434486        1.064126  
C       3.055186        3.253395       -3.159326  
H       2.926673        2.518273       -3.961843  
H       2.102937        3.384321       -2.631628  
H       3.366986        4.206108       -3.584626  
C       7.032919        0.570042        0.993681  
H       7.562798        0.696755        0.043004  
H       6.758241        1.553867        1.390673  
H       7.678607        0.058184        1.705643  
energy=-2586.39628406
