91
F:47-61;
P       2.558590       -0.220072        0.728196  
C       2.480576       -2.085473        0.528221  
O       3.519754       -2.478262       -0.389085  
H       2.672042       -2.584385        1.487048  
P      -0.003601       -1.211899       -0.648927  
C       1.139383       -2.566073        0.007495  
O       0.424925       -3.203991        1.079629  
H       1.311197       -3.312449       -0.781225  
C       0.020008       -1.421478       -2.519598  
C       2.980668        0.054645        2.539963  
C      -0.427097       -2.826273       -2.919808  
C      -0.926177       -0.388653       -3.130891  
C       1.456429       -1.161984       -2.981368  
C       4.243749       -0.710794        2.926345  
C       3.189115        1.553673        2.750923  
C       1.778739       -0.427942        3.353941  
C      -1.401248       -2.121719        0.024616  
C      -0.928705       -3.093302        0.917807  
C      -1.798564       -3.916688        1.625699  
H      -1.408268       -4.660945        2.311798  
C      -2.775340       -1.983958       -0.178430  
C      -3.655456       -2.817324        0.504513  
H      -4.724570       -2.722266        0.336616  
C      -3.166119       -3.765487        1.407743  
H      -3.859802       -4.406194        1.944721  
C       4.083210       -0.179996       -0.223920  
C       4.369261       -1.459418       -0.714655  
C       5.465504       -1.694308       -1.539297  
C       4.892862        0.897844       -0.592985  
C       5.995556        0.677030       -1.413978  
H       6.636317        1.506602       -1.695532  
C       6.274354       -0.612188       -1.878837  
H       5.670723       -2.695916       -1.903185  
H       7.134005       -0.777905       -2.521672  
Rh       0.620733        0.839940       -0.017145  
C      -4.448069        0.520272        1.127269  
C      -3.133669        0.981522        1.036982  
C      -2.628894        1.447908       -0.181174  
C      -3.457862        1.437975       -1.308041  
C      -4.769200        0.960349       -1.214500  
C      -5.282763        0.500713        0.003584  
O      -4.832842        0.078457        2.354690  
H      -2.504334        0.919483        1.921015  
H      -3.096793        1.795966       -2.268405  
O      -5.487120        0.977844       -2.370289  
H      -6.296194        0.126958        0.071341  
C      -1.240727        2.004334       -0.301674  
H      -1.012768        2.131419       -1.370802  
C      -0.945802        3.395896        1.870145  
H      -0.859503        4.418893        2.245592  
H      -1.814013        2.936623        2.348130  
H      -0.054363        2.835609        2.169537  
N      -0.048655        4.183336       -0.284016  
H      -0.306520        5.080239       -0.669280  
C      -1.110802        3.393299        0.356358  
C       1.247517        3.863206       -0.280351  
O       1.676156        2.775037        0.181510  
H      -3.158072       -1.232605       -0.865776  
H       4.658208        1.899653       -0.240240  
H      -2.029487        3.943580        0.113499  
H      -0.630148        0.935993        0.905728  
C       2.220499        4.848099       -0.844670  
H       2.760627        4.386350       -1.674344  
H       1.749399        5.768089       -1.191907  
H       2.958992        5.094300       -0.078416  
H       1.588041       -1.499123        3.220058  
H       1.970787       -0.258771        4.419130  
H       0.866145        0.114677        3.080957  
H       2.304137        2.128814        2.463690  
H       3.396013        1.742740        3.810088  
H       4.040502        1.933183        2.175300  
H       5.112709       -0.385981        2.345765  
H       4.461185       -0.524963        3.984209  
H       4.139107       -1.794297        2.807721  
H       2.161067       -1.892601       -2.567755  
H       1.510097       -1.240487       -4.072573  
H       1.800253       -0.158081       -2.703880  
H      -0.605622        0.634272       -2.908309  
H      -0.937002       -0.505581       -4.220128  
H      -1.955917       -0.507744       -2.775385  
H      -1.455312       -3.032891       -2.608981  
H      -0.383955       -2.908665       -4.011482  
H       0.216662       -3.612030       -2.513017  
C      -6.818098        0.483203       -2.324248  
H      -6.840461       -0.569457       -2.019455  
H      -7.438600        1.072670       -1.639920  
H      -7.207924        0.575655       -3.336937  
C      -6.154279       -0.423669        2.492181  
H      -6.899359        0.344981        2.257856  
H      -6.319993       -1.297101        1.850177  
H      -6.254817       -0.719543        3.535429  
energy=-2586.40351736
