91
F:47-61;
P      -2.496053       -0.223091       -0.666948  
C      -2.467715       -2.072072       -0.348321  
O      -3.474943       -2.369707        0.635009  
H      -2.715235       -2.626867       -1.262915  
P       0.061032       -1.202980        0.725108  
C      -1.120741       -2.559020        0.147828  
O      -0.448370       -3.229040       -0.931861  
H      -1.276838       -3.283634        0.959862  
C       0.083841       -1.305755        2.602616  
C      -2.924334       -0.058479       -2.489269  
C       0.500353       -2.697688        3.073489  
C       1.082174       -0.269495        3.119959  
C      -1.328733       -0.973708        3.089585  
C      -4.247670       -0.753136       -2.800429  
C      -3.019059        1.429736       -2.823961  
C      -1.773883       -0.694426       -3.272770  
C       1.425447       -2.175359        0.065781  
C       0.911578       -3.154486       -0.796054  
C       1.745023       -4.022088       -1.494466  
H       1.322481       -4.771513       -2.155505  
C       2.805764       -2.079304        0.251523  
C       3.650788       -2.957932       -0.420582  
H       4.724585       -2.891283       -0.273032  
C       3.119420       -3.910891       -1.294563  
H       3.786221       -4.586031       -1.823433  
C      -4.003694       -0.079718        0.304490  
C      -4.297371       -1.311474        0.902426  
C      -5.369779       -1.459477        1.776568  
C      -4.784314        1.038556        0.611020  
C      -5.863688        0.904153        1.480158  
H      -6.481459        1.765232        1.714190  
C      -6.148361       -0.338555        2.055222  
H      -5.580198       -2.425625        2.223735  
H      -6.989204       -0.436165        2.735664  
Rh      -0.521787        0.823244       -0.022882  
C       4.536803        0.232098       -1.151458  
C       3.231256        0.730900       -1.112708  
C       2.753493        1.352314        0.047037  
C       3.585937        1.456695        1.168878  
C       4.890558        0.946375        1.119856  
C       5.373857        0.343497       -0.041103  
O       5.062086       -0.418926       -2.224693  
H       2.562228        0.580929       -1.953566  
H       3.206801        1.937244        2.065178  
O       5.759553        0.990098        2.166645  
H       6.377188       -0.068399       -0.068018  
C       1.383174        1.957002        0.102497  
H       1.162651        2.212720        1.150704  
C       1.046257        3.074606       -2.216697  
H       1.012326        4.043082       -2.722481  
H       1.856432        2.493320       -2.663156  
H       0.104142        2.547889       -2.403183  
N       0.277461        4.167109       -0.150617  
H       0.577870        5.105639        0.069231  
C       1.280658        3.256607       -0.722612  
C      -1.026768        3.899065       -0.042007  
O      -1.516278        2.773625       -0.312327  
H       3.221835       -1.325110        0.917006  
H      -4.545232        2.005160        0.173386  
H       2.229483        3.791408       -0.587729  
H       0.725958        0.784785       -0.955134  
C      -1.934549        4.996592        0.411931  
H      -2.504774        4.659280        1.279956  
H      -1.403855        5.915520        0.663038  
H      -2.653930        5.210796       -0.382156  
H      -1.666502       -1.765086       -3.064925  
H      -1.962420       -0.585000       -4.346246  
H      -0.817744       -0.208199       -3.043279  
H      -2.076189        1.947716       -2.622773  
H      -3.254126        1.545082       -3.887893  
H      -3.807180        1.931990       -2.252846  
H      -5.082325       -0.302698       -2.254740  
H      -4.457004       -0.656231       -3.871679  
H      -4.231481       -1.824282       -2.572859  
H      -2.067124       -1.703594        2.738044  
H      -1.350441       -0.988955        4.184638  
H      -1.649624        0.023504        2.765119  
H       0.802532        0.747160        2.822814  
H       1.107645       -0.304793        4.214801  
H       2.098717       -0.462657        2.759011  
H       1.512046       -2.956035        2.747259  
H       0.488128       -2.713278        4.169043  
H      -0.179611       -3.484591        2.733701  
C       5.289230        1.553610        3.383007  
H       5.021600        2.608792        3.256723  
H       4.422094        1.003457        3.768491  
H       6.113396        1.471278        4.089909  
C       4.183064       -0.699714       -3.305385  
H       3.323541       -1.294396       -2.968466  
H       3.826694        0.221440       -3.781638  
H       4.764948       -1.276258       -4.023349  
energy=-2586.40434504
