91
F:55-61;
P       2.046426       -0.515699        0.764121  
C       2.170562       -2.175058       -0.077302  
O       3.538599       -2.369674       -0.483050  
H       1.923691       -2.978759        0.629101  
P      -0.037643       -0.894929       -1.384605  
C       1.229918       -2.303731       -1.277945  
O       0.489568       -3.532671       -1.156375  
H       1.825773       -2.374076       -2.192943  
C      -0.618922       -0.890947       -3.183159  
C       1.627366       -0.836305        2.562211  
C      -0.590627       -2.300890       -3.778312  
C      -2.067563       -0.388955       -3.176857  
C       0.278895        0.025630       -4.009663  
C       2.658520       -1.753353        3.211848  
C       1.607312        0.530885        3.248482  
C       0.231233       -1.461660        2.599337  
C      -1.221670       -2.002989       -0.592917  
C      -0.741485       -3.316799       -0.601168  
C      -1.498366       -4.368445       -0.092323  
H      -1.108305       -5.381086       -0.105922  
C      -2.485624       -1.729280       -0.078508  
C      -3.253612       -2.767565        0.441082  
H      -4.242593       -2.561632        0.842036  
C      -2.755297       -4.074870        0.433533  
H      -3.356087       -4.882162        0.842627  
C       3.813768       -0.273156        0.596374  
C       4.370737       -1.365903       -0.081109  
C       5.735621       -1.431832       -0.349047  
C       4.632080        0.788408        0.994430  
C       5.997896        0.731337        0.734678  
H       6.642868        1.546331        1.047309  
C       6.538176       -0.373356        0.067591  
H       6.148090       -2.289594       -0.870049  
H       7.604704       -0.410290       -0.134534  
Rh       0.699744        0.986023       -0.374077  
C      -3.397105        0.631253        2.125672  
C      -2.285644        1.372658        1.713838  
C      -2.313811        2.080926        0.510012  
C      -3.451405        2.013617       -0.297785  
C      -4.551119        1.249589        0.108761  
C      -4.548593        0.569180        1.332531  
O      -3.269259       -0.005455        3.319478  
H      -1.418729        1.425566        2.368075  
H      -3.530277        2.578276       -1.221259  
O      -5.602682        1.229918       -0.753295  
H      -5.408441       -0.008146        1.646707  
C      -1.174696        3.018348        0.208657  
H      -1.584526        4.040155        0.134613  
C      -1.050368        3.127117       -2.344149  
H      -0.373008        3.181235       -3.200940  
H      -1.790834        2.356401       -2.553668  
H      -1.587444        4.083810       -2.275781  
N       0.767977        3.855107       -0.943421  
H       0.645314        4.751477       -1.399424  
C      -0.300786        2.852057       -1.060406  
C       1.757713        3.703903       -0.059539  
O       1.919719        2.591686        0.509463  
H       4.197115        1.649276        1.494042  
H      -2.862189       -0.710699       -0.097485  
H      -0.510479        3.034381        1.080976  
H       0.701365        1.635351       -1.805635  
C       2.662545        4.847575        0.244053  
H       3.700854        4.515191        0.189267  
H       2.512794        5.693093       -0.427430  
H       2.481286        5.181688        1.269006  
H      -0.517257       -0.828930        2.105701  
H       0.201620       -2.449779        2.123585  
H      -0.078724       -1.592695        3.642214  
H       0.899718        1.214030        2.762919  
H       1.303219        0.412028        4.294174  
H       2.592589        1.009295        3.238905  
H       3.659029       -1.309744        3.204564  
H       2.378081       -1.931677        4.255986  
H       2.714926       -2.730895        2.720427  
H       1.332024       -0.272048       -3.959511  
H      -0.029734       -0.018063       -5.059832  
H       0.209030        1.069296       -3.690934  
H      -2.363006       -0.107222       -4.193179  
H      -2.755829       -1.165574       -2.830122  
H      -2.213727        0.483510       -2.530864  
H      -1.191646       -3.006290       -3.196861  
H      -1.019783       -2.259126       -4.785566  
H       0.422760       -2.702072       -3.874156  
C      -6.721761        0.425662       -0.405983  
H      -6.433735       -0.627284       -0.299770  
H      -7.189628        0.771104        0.522634  
H      -7.429997        0.526813       -1.226748  
C      -4.396733       -0.713787        3.815260  
H      -5.258370       -0.049151        3.943683  
H      -4.671709       -1.542333        3.152385  
H      -4.097369       -1.112375        4.783477  
energy=-2586.39912036
