91
F:55-61;
P       2.113742       -0.507166        0.710759  
C       2.301026       -2.101299       -0.240315  
O       3.635129       -2.137711       -0.780181  
H       2.193878       -2.962604        0.432968  
P      -0.043494       -0.880054       -1.372944  
C       1.272547       -2.250519       -1.362691  
O       0.583969       -3.505515       -1.205378  
H       1.802014       -2.289980       -2.319602  
C      -0.661533       -0.812951       -3.157205  
C       1.789124       -0.968290        2.497522  
C      -0.605220       -2.195464       -3.811082  
C      -2.123594       -0.355701       -3.098523  
C       0.191532        0.169591       -3.954393  
C       2.910457       -1.838326        3.056110  
C       1.682321        0.345075        3.275248  
C       0.446684       -1.703156        2.538372  
C      -1.177912       -2.049703       -0.605881  
C      -0.650247       -3.343349       -0.640370  
C      -1.364530       -4.431237       -0.145779  
H      -0.937200       -5.428210       -0.179420  
C      -2.449135       -1.831725       -0.081911  
C      -3.176045       -2.906447        0.421777  
H      -4.170353       -2.744184        0.828312  
C      -2.628754       -4.193516        0.390796  
H      -3.197182       -5.029613        0.788090  
C       3.851982       -0.137936        0.480988  
C       4.428955       -1.123435       -0.331513  
C       5.773179       -1.070698       -0.690656  
C       4.627711        0.938473        0.922296  
C       5.973637        0.998422        0.573418  
H       6.586086        1.825034        0.919254  
C       6.534976       -0.001782       -0.227785  
H       6.200819       -1.847608       -1.315920  
H       7.585169        0.052721       -0.499145  
Rh       0.639328        0.976879       -0.278495  
C      -3.485147        0.307016        2.239603  
C      -2.386452        1.095638        1.864178  
C      -2.441543        1.880775        0.716630  
C      -3.589781        1.848286       -0.091982  
C      -4.667198        1.039767        0.277018  
C      -4.635039        0.279199        1.455101  
O      -3.332204       -0.399126        3.390250  
H      -1.514807        1.121369        2.513672  
H      -3.660506        2.492547       -0.960197  
O      -5.813896        0.931888       -0.446457  
H      -5.499813       -0.322426        1.710396  
C      -1.332104        2.868097        0.467990  
H      -1.770208        3.880851        0.477638  
C      -1.253124        3.143626       -2.078394  
H      -0.590072        3.276557       -2.938188  
H      -1.964003        2.356176       -2.326882  
H      -1.827638        4.071704       -1.946665  
N       0.544453        3.874267       -0.655739  
H       0.359968        4.792985       -1.041621  
C      -0.473285        2.825163       -0.822247  
C       1.561338        3.718189        0.195471  
O       1.798019        2.579994        0.680841  
H       4.174798        1.722672        1.522181  
H      -2.862667       -0.827129       -0.084565  
H      -0.653554        2.837178        1.329407  
H       0.579183        1.709505       -1.667870  
C       2.407664        4.887750        0.562833  
H       3.461331        4.612268        0.490979  
H       2.213299        5.760834       -0.060223  
H       2.210846        5.154860        1.604462  
H      -0.364934       -1.101372        2.109325  
H       0.473417       -2.660145        2.002825  
H       0.184989       -1.921651        3.579560  
H       0.894902        0.991043        2.867346  
H       1.437339        0.130236        4.320900  
H       2.620416        0.910061        3.261731  
H       3.873251       -1.318128        3.043871  
H       2.682401       -2.098327        4.095706  
H       3.023710       -2.778086        2.504389  
H       1.256306       -0.087933       -3.926087  
H      -0.126544        0.158544       -5.002484  
H       0.083945        1.194831       -3.588326  
H      -2.447944       -0.025576       -4.091484  
H      -2.783223       -1.169852       -2.783038  
H      -2.279797        0.474610       -2.401150  
H      -1.164638       -2.943241       -3.240665  
H      -1.066933       -2.129182       -4.802492  
H       0.416671       -2.558736       -3.955156  
C      -5.875713        1.631449       -1.681692  
H      -5.830851        2.715725       -1.530080  
H      -5.063031        1.324669       -2.351725  
H      -6.833629        1.367626       -2.127684  
C      -4.458981       -1.123296        3.865468  
H      -5.315228       -0.459227        4.028142  
H      -4.745558       -1.919325        3.169052  
H      -4.153994       -1.565575        4.812662  
energy=-2586.39981242
