91
F:55-61;
P       0.026770       -0.912484       -1.014188  
C       0.895663       -2.155972        0.098181  
O      -0.102631       -2.959752        0.745897  
H       1.496819       -2.824304       -0.534805  
P       2.370277        0.181958        0.584500  
C       1.830539       -1.530333        1.123968  
O       3.011364       -2.341637        1.269531  
H       1.334890       -1.500315        2.100896  
C       2.818835        1.098279        2.176471  
C       0.561030       -1.421782       -2.758346  
C       3.530647        0.160566        3.151269  
C       3.753694        2.250219        1.805208  
C       1.529051        1.629657        2.801373  
C       0.179733       -2.875565       -3.030135  
C      -0.147076       -0.502858       -3.752760  
C       2.074375       -1.238378       -2.879570  
C       3.928852       -0.543619        0.029230  
C       4.042497       -1.854142        0.512633  
C       5.168535       -2.628690        0.250453  
H       5.239315       -3.640080        0.637394  
C       4.951303       -0.002266       -0.751040  
C       6.079527       -0.769134       -1.030008  
H       6.878094       -0.358954       -1.640105  
C       6.182037       -2.069647       -0.525342  
H       7.063189       -2.664036       -0.748318  
C      -1.536530       -1.757736       -0.721264  
C      -1.343534       -2.798865        0.197681  
C      -2.376982       -3.665488        0.544250  
C      -2.789895       -1.601665       -1.322240  
C      -3.820785       -2.479334       -1.008378  
H      -4.793554       -2.360258       -1.475170  
C      -3.613090       -3.494446       -0.069846  
H      -2.202448       -4.455780        1.267134  
H      -4.428067       -4.166000        0.185063  
Rh       0.617293        1.205457       -0.537899  
C      -3.420691       -0.363137        2.239630  
C      -2.653299        0.736201        1.832357  
C      -3.116775        1.552388        0.796396  
C      -4.331608        1.272711        0.166493  
C      -5.089979        0.175932        0.590475  
C      -4.647808       -0.630593        1.637640  
O      -3.041335       -1.225401        3.224089  
H      -1.716012        0.981045        2.324255  
H      -4.675406        1.917585       -0.635768  
O      -6.270175       -0.194866        0.020378  
H      -5.231619       -1.490939        1.947057  
C      -2.306179        2.743064        0.370015  
H      -2.986263        3.529486        0.005107  
C      -1.922377        2.090462       -2.044267  
H      -1.214222        2.038209       -2.873651  
H      -2.406641        1.117833       -1.930043  
H      -2.710123        2.810671       -2.318490  
N      -0.610557        3.816640       -0.928563  
H      -1.228775        4.602208       -1.108191  
C      -1.258508        2.501623       -0.747428  
C       0.662380        4.092188       -0.661138  
O       1.471361        3.177692       -0.341015  
H      -2.959341       -0.812848       -2.050698  
H       4.860759        1.009801       -1.139906  
H      -1.781366        3.161018        1.237761  
H      -0.655063        1.374601        0.333338  
C       1.139164        5.501917       -0.753754  
H       1.930689        5.567067       -1.503234  
H       0.345048        6.202436       -1.011833  
H       1.576399        5.793869        0.203481  
H       2.382033       -0.203977       -2.688361  
H       2.635077       -1.890741       -2.199617  
H       2.384992       -1.495322       -3.898276  
H       0.155333        0.540803       -3.617365  
H       0.117724       -0.798660       -4.773840  
H      -1.237998       -0.560421       -3.668332  
H      -0.903310       -3.025615       -3.008679  
H       0.537628       -3.151952       -4.028232  
H       0.633575       -3.576260       -2.321345  
H       0.814611        0.824604        3.014026  
H       1.763172        2.121154        3.752580  
H       1.034578        2.357680        2.149972  
H       3.987491        2.823488        2.709394  
H       4.701596        1.881269        1.399890  
H       3.299839        2.930498        1.080194  
H       4.447712       -0.256773        2.723076  
H       3.814655        0.732765        4.041722  
H       2.898134       -0.667545        3.485435  
C      -6.674793        0.508138       -1.144503  
H      -6.889799        1.560349       -0.926248  
H      -5.906420        0.451943       -1.926770  
H      -7.584036        0.018695       -1.491421  
C      -1.724332       -1.082284        3.729486  
H      -0.986388       -1.134700        2.916524  
H      -1.598290       -0.136265        4.269669  
H      -1.568571       -1.914254        4.415270  
energy=-2586.40144486
