25
bp10
Si       0.000000      0.000000     -0.000000
O       0.093467     -1.768131     -0.117716
C      -0.656751     -2.669300      0.484466
C      -0.270429     -4.088408      0.291792
H      -1.731810     -2.478658      0.507397
C       1.033459     -4.456240     -0.076544
C      -1.245882     -5.078569      0.487167
C       1.351055     -5.802050     -0.255153
H       1.783821     -3.685925     -0.225721
C      -0.924395     -6.424156      0.307149
H      -2.254259     -4.788654      0.772966
C       0.375159     -6.788652     -0.062598
H       2.359226     -6.084873     -0.545639
H      -1.685048     -7.186207      0.452094
H       0.626837     -7.836425     -0.202211
C      -0.279437     -2.527328      2.462049
C      -0.635825     -1.188988      2.564657
H      -0.940018     -3.285933      2.871070
H       0.774742     -2.787902      2.405056
C       0.198418     -0.125813      2.105213
H       1.264867     -0.297056      2.256263
Cl      -0.095011      0.144077     -2.232543
Cl      -2.230330      0.205439      0.168376
H      -1.669803     -0.955600      2.808640
H      -0.133172      0.848121      2.461929
