25
bp5
Si       0.000000      0.000000      0.000000
O      -1.742315      0.258667     -0.178123
C      -2.622466     -0.491954     -0.812171
C      -4.002666      0.044753     -0.904183
H      -2.553662     -1.570816     -0.655467
C      -4.271496      1.415643     -0.765334
C      -5.055609     -0.853582     -1.137770
C      -5.584132      1.877663     -0.852907
H      -3.452985      2.103908     -0.578441
C      -6.367584     -0.387429     -1.224613
H      -4.841528     -1.914466     -1.243932
C      -6.633865      0.979397     -1.084822
H      -5.792425      2.937868     -0.737463
H      -7.180363     -1.087335     -1.397240
H      -7.655412      1.343534     -1.152214
C      -2.148675     -0.433104     -2.766385
C      -0.859681     -0.925356     -2.603070
H      -2.911984     -1.070628     -3.201940
H      -2.286030      0.638146     -2.896530
C       0.210743     -0.127382     -2.100098
H       0.171682      0.903393     -2.450006
Cl      -0.187325      0.240321      2.214751
Cl      -0.012044     -2.242587      0.181935
H      -0.712874     -2.001628     -2.658452
H       1.195918     -0.577145     -2.222419
