25
bp6
Si       0.000000      0.000000      0.000000
O      -1.767861      0.039000      0.038359
C      -2.602390     -0.688023      0.758649
C      -4.034013     -0.610224      0.377927
H      -2.410514     -0.737866      1.833121
C      -4.431733     -0.233425     -0.914795
C      -5.002611     -0.925843      1.343754
C      -5.788064     -0.165842     -1.230546
H      -3.675811      0.008158     -1.655551
C      -6.358822     -0.855817      1.023929
H      -4.688206     -1.219688      2.342540
C      -6.753672     -0.477649     -0.264379
H      -6.095501      0.130553     -2.229679
H      -7.105545     -1.093416      1.776450
H      -7.809676     -0.424415     -0.514889
C      -2.274624     -2.619502      0.306829
C      -0.937354     -2.625080      0.686746
H      -3.006742     -3.110741      0.940632
H      -2.519511     -2.556731     -0.750859
C       0.102125     -2.077230     -0.127273
H      -0.030582     -2.247875     -1.195673
Cl       0.199918     -0.092409      2.288872
Cl      -0.094075      0.210585     -2.283235
H      -0.705717     -2.861934      1.723164
H       1.108790     -2.302510      0.225390
