78
mapping.S.ts3 optimized geometry
C       0.011496        0.926457        3.544285  
C       0.212518        2.298762        3.434899  
C      -0.263354        3.007158        2.313084  
C      -0.956879        2.325575        1.286395  
C      -1.151179        0.947179        1.416365  
C      -0.673101        0.249943        2.527835  
H       0.504214        4.912352        3.023626  
H       0.384230        0.384694        4.408924  
H       0.743779        2.842933        4.212276  
C      -0.036080        4.434466        2.207628  
C      -1.491612        3.064857        0.063432  
H      -1.675877        0.402725        0.638707  
H      -0.832436       -0.821207        2.595840  
C      -1.180242        4.584530        0.035909  
C      -0.458927        5.178756        1.156011  
O      -1.549607        5.267557       -0.922644  
H       3.157577        1.003729       -0.688070  
C      -0.903108        2.439187       -1.234553  
C       0.590058        2.485689       -1.251267  
H      -1.335976        2.977559       -2.089393  
H      -1.243531        1.402601       -1.313933  
H       1.154069        3.145750       -0.605160  
N       1.302288        1.732447       -2.060324  
O       2.628756        1.750484       -2.011511  
O       0.746006        0.934356       -2.928836  
C      -3.036767        2.926279        0.020142  
H      -0.270088        6.247825        1.107177  
H      -3.314500        1.870078       -0.028027  
H      -3.488419        3.365133        0.916494  
H      -3.419565        3.442042       -0.865398  
C       1.599643       -1.783157       -0.952820  
N       0.354457       -1.383726       -1.440016  
N       2.630841       -1.225867       -1.667512  
H       2.402012       -0.498334       -2.337051  
H       0.377962       -0.600545       -2.116530  
C      -0.902392       -1.688613       -0.938577  
C      -2.002790       -1.091580       -1.593854  
C      -1.149618       -2.520435        0.167395  
C      -3.294829       -1.282268       -1.120997  
H      -1.823253       -0.466167       -2.461248  
C      -2.461501       -2.712340        0.609764  
H      -0.321992       -2.997197        0.671448  
C      -3.546049       -2.092610       -0.007379  
H      -4.555386       -2.236141        0.357155  
C       4.032139       -1.259838       -1.244608  
C       4.246362       -0.669827        0.166933  
C       4.624920       -2.679440       -1.332919  
H       4.560484       -0.618010       -1.958833  
C       5.723050       -0.701988        0.572378  
C       6.098497       -2.708964       -0.909720  
H       4.039403       -3.336090       -0.682120  
H       4.501270       -3.030466       -2.363100  
C       6.258397       -2.141468        0.505798  
H       5.842724       -0.302227        1.584396  
H       6.312265       -0.077319       -0.109214  
H       6.475598       -3.737007       -0.955708  
H       6.697791       -2.108164       -1.608639  
H       7.310815       -2.144946        0.810564  
H       5.706570       -2.770414        1.217663  
C      -2.675598       -3.571051        1.836101  
C      -4.470834       -0.642370       -1.822517  
F      -1.901640       -4.691606        1.821715  
F      -3.963262       -3.978260        1.980660  
F      -2.349163       -2.893526        2.983007  
F      -5.327713       -0.056011       -0.935731  
F      -4.104737        0.316473       -2.711540  
F      -5.204338       -1.565323       -2.513794  
H       3.677563       -1.281934        0.868386  
N       3.613634        0.740996        0.251431  
C       4.562157        1.877717        0.481113  
C       2.525149        0.765361        1.279280  
H       3.975605        2.795578        0.421167  
H       5.025678        1.783101        1.463393  
H       5.317068        1.876006       -0.304436  
H       1.792690       -0.000697        1.030868  
H       2.962405        0.561426        2.259187  
H       2.053450        1.747699        1.270053  
O       1.759566       -2.547752        0.004541  
