78
mapping.S.ts5 optimized geometry
C      -4.924492       -2.209652       -1.525214  
C      -4.021290       -1.178433       -1.754114  
C      -2.639811       -1.372662       -1.551853  
C      -2.153511       -2.629706       -1.114147  
C      -3.080281       -3.654720       -0.890162  
C      -4.448318       -3.452900       -1.090533  
H      -2.136952        0.662249       -2.116896  
H      -5.988503       -2.051300       -1.676195  
H      -4.368846       -0.202664       -2.084577  
C      -1.719502       -0.288519       -1.794201  
C      -0.675622       -2.847500       -0.833126  
H      -2.736975       -4.625853       -0.547292  
H      -5.143302       -4.267273       -0.903690  
C       0.216201       -1.662276       -1.215020  
C      -0.377416       -0.412922       -1.627792  
O       1.452858       -1.793083       -1.135298  
H       2.975458       -0.856578       -1.016435  
C      -0.550534       -3.060029        0.762627  
C       0.832816       -3.179112        1.274446  
H      -1.064122       -2.240499        1.267580  
H      -1.124752       -3.977467        0.945592  
H       1.533441       -3.898311        0.874784  
N       1.353192       -2.323146        2.148081  
O       2.615008       -2.352496        2.450374  
O       0.612106       -1.411514        2.737850  
C      -0.149623       -4.118842       -1.539686  
H       0.295486        0.419494       -1.810753  
H      -0.696185       -4.999103       -1.189375  
H      -0.277869       -4.034700       -2.624470  
H       0.912165       -4.250704       -1.318117  
C       1.863620        1.182910        0.687307  
N       0.637523        0.865286        1.255359  
N       2.874554        0.376914        1.151536  
H       2.677617       -0.360880        1.825489  
H       0.624538        0.018048        1.865427  
C      -0.611356        1.381201        0.948560  
C      -1.723907        0.697695        1.482563  
C      -0.839574        2.508553        0.139340  
C      -3.017126        1.105973        1.180207  
H      -1.551264       -0.173030        2.106773  
C      -2.149256        2.902037       -0.142917  
H      -0.000450        3.046117       -0.277106  
C      -3.253605        2.212812        0.359186  
H      -4.262360        2.522667        0.119477  
C       4.284754        0.585185        0.847663  
C       4.609219        0.411830       -0.649578  
C       4.823715        1.944115        1.339271  
H       4.813303       -0.199558        1.398679  
C       6.116741        0.503362       -0.898746  
C       6.330933        2.069244        1.078688  
H       4.282796        2.741931        0.820501  
H       4.602248        2.026646        2.408739  
C       6.643117        1.863835       -0.409588  
H       6.335347        0.382424       -1.963967  
H       6.633989       -0.296130       -0.354234  
H       6.685555        3.051808        1.410483  
H       6.867297        1.311158        1.666778  
H       7.722303        1.918009       -0.590479  
H       6.170501        2.663688       -0.995671  
C      -2.354206        4.056281       -1.095173  
C      -4.178846        0.359897        1.792930  
F      -2.216992        3.651059       -2.399730  
F      -1.447906        5.055500       -0.909199  
F      -3.589244        4.616581       -0.994252  
F      -3.931290       -0.971959        1.926839  
F      -4.465972        0.827762        3.048115  
F      -5.322746        0.481054        1.065572  
H       4.090553        1.196347       -1.204518  
N       4.003412       -0.881937       -1.184048  
C       4.469941       -2.129840       -0.490423  
C       4.151097       -1.002067       -2.670520  
H       4.121340       -2.106644        0.543257  
H       4.010415       -2.974889       -1.003746  
H       5.556454       -2.188746       -0.552895  
H       5.191801       -1.216523       -2.913825  
H       3.504723       -1.817544       -2.996649  
H       3.835811       -0.061239       -3.125541  
O       2.038996        2.072686       -0.155388  
