23
ts1
 C                  2.06658900    6.38504100    0.67012700
 C                  2.87767100    5.65191500   -0.18142500
 C                  2.67122200    4.26736600   -0.37061100
 C                  1.60536000    3.61984800    0.31883100
 C                  0.79817900    4.39201300    1.17940800
 C                  1.01246400    5.75723200    1.36921800
 H                  4.31941300    4.02732600   -1.75557200
 H                  2.23874900    7.45065300    0.80462800
 H                  3.69120300    6.13662300   -0.71746200
 C                  3.52644300    3.49840600   -1.22756700
 C                  1.33669700    2.20903300    0.04261300
 H                 -0.01797000    3.91962400    1.71819100
 H                  0.38912695    6.33025062    2.03966605
 C                  2.36661000    1.43204100   -0.65741900
 C                  3.40678900    2.14492100   -1.38741100
 O                  2.29873300    0.16620000   -0.70703600
 H                  2.61311100   -0.94595000    0.53531100
 C                  0.13209300    2.40825200   -1.58488700
 C                 -0.34582200    1.16310800   -2.02496700
 H                  0.81016700    2.95349400   -2.23416700
 H                 -0.58959800    3.01630000   -1.04592200
 H                 -1.17534100    0.66567500   -1.54871600
 N                  0.30051000    0.42231600   -2.98162900
 O                 -0.10143400   -0.79644600   -3.18932600
 O                  1.23682800    0.89787300   -3.66967400
 H                  0.70274114    1.65769285    0.72123219
 H                  4.07823214    1.57840579   -2.01560254
 C                 -0.00069700   -2.57954500   -0.08625100
 N                 -0.93715900   -1.82606700   -0.74985000
 N                  1.21176800   -2.52526400   -0.69798200
 H                  1.31033600   -1.82583400   -1.42437700
 H                 -0.68419300   -1.49203000   -1.70580400
 C                 -2.17341100   -1.35625300   -0.29453500
 C                 -3.17478100   -1.15137500   -1.26015400
 C                 -2.41528700   -0.97661500    1.03186000
 C                 -4.39246000   -0.58234800   -0.89523900
 H                 -2.98010800   -1.42726300   -2.29040000
 C                 -3.64863900   -0.42279000    1.38058800
 H                 -1.64039200   -1.09456500    1.77667000
 C                 -4.64993000   -0.22134600    0.43100400
 H                 -5.60116600    0.21527100    0.70861400
 C                  2.43763800   -3.28190600   -0.40953800
 C                  2.98608100   -2.99521900    1.00435900
 C                  2.25121100   -4.79465600   -0.65397500
 H                  3.16635900   -2.90958700   -1.13791800
 C                  3.50221700   -5.60325700   -0.29182700
 C                  4.21776900   -3.83743200    1.34414900
 H                  2.18705000   -3.21824500    1.71259600
 C                  3.91102500   -5.33144200    1.16160600
 H                  3.29989800   -6.66971500   -0.44210400
 H                  4.33438600   -5.33143100   -0.95702300
 H                  4.53132600   -3.62696000    2.37293000
 H                  5.05034300   -3.57736300    0.68068200
 H                  4.79790000   -5.91452600    1.43257300
 H                  3.09790400   -5.62993400    1.83654500
 C                 -5.48771400   -0.39278000   -1.91922500
 C                 -3.83970100    0.00794300    2.81625700
 F                 -5.03777400   -0.46609600   -3.19805800
 F                 -6.10842500    0.81417300   -1.78221700
 F                 -6.46261500   -1.34365400   -1.78749100
 F                 -5.10148500    0.42974000    3.08476700
 F                 -2.99964000    1.03980100    3.14247200
 F                 -3.56067500   -1.00124500    3.69080500
 H                  1.40886500   -5.14099100   -0.04874300
 S                 -0.35640200   -3.49642400    1.30067600
 N                  3.25490900   -1.49016800    1.17065200
 C                  4.62042200   -1.04833000    0.73664800
 C                  2.97646300   -1.04379600    2.57209900
 H                  4.61895800    0.04137800    0.72855400
 H                  5.36329600   -1.42936400    1.43689600
 H                  4.80384900   -1.42412700   -0.26953100
 H                  1.93771600   -1.28149400    2.80534800
 H                  3.65212000   -1.57093900    3.24826200
 H                  3.14523100    0.03289300    2.63179800
 H                  1.98484300   -4.92828100   -1.70786000
