80
mapping.S.ts5 optimized geometry
C      -6.957445       -0.411540       -0.563493  
C      -5.841093        0.378986       -0.802594  
C      -4.538302       -0.155948       -0.694970  
C      -4.370484       -1.528751       -0.330140  
C      -5.521214       -2.313754       -0.095510  
C      -6.793215       -1.767220       -0.211558  
H      -3.507463        1.675494       -1.240293  
H      -7.955153        0.010837       -0.649179  
H      -5.956536        1.424803       -1.080456  
C      -3.366814        0.630916       -0.965475  
C      -3.039667       -2.049278       -0.148918  
H      -5.397377       -3.359171        0.179767  
H      -7.667250       -2.387738       -0.029250  
C      -1.881085       -1.287320       -0.569144  
C      -2.107747        0.106677       -0.904497  
O      -0.725758       -1.804441       -0.572600  
H       1.129924       -1.732426       -0.727660  
C      -2.750268       -1.759091        1.979930  
C      -1.437029       -2.011008        2.353725  
H      -3.099815       -0.733143        1.962780  
H      -3.486796       -2.523251        2.204457  
H      -1.045738       -2.995690        2.569017  
N      -0.480113       -1.016107        2.349364  
O       0.723777       -1.316350        2.651318  
O      -0.794716        0.180567        2.074277  
H      -2.916590       -3.127705       -0.090806  
H      -1.236983        0.712364       -1.126139  
C       1.946770        1.175309       -0.230614  
N       0.778340        1.809932        0.061490  
N       2.179719        0.090167        0.566883  
H       1.558532       -0.065695        1.360949  
H       0.228337        1.343754        0.783139  
C       0.437977        3.261854       -0.060994  
C       3.271329       -0.887056        0.523870  
C       3.253488       -1.733123       -0.762479  
C       4.660704       -0.266175        0.787433  
H       3.059229       -1.554867        1.364777  
C       4.398739       -2.748657       -0.809110  
C       5.776948       -1.315454        0.727599  
H       4.845740        0.508887        0.039993  
H       4.623093        0.215398        1.770998  
C       5.750763       -2.044164       -0.621999  
H       4.375907       -3.293564       -1.758349  
H       4.283722       -3.478592        0.000638  
H       6.745772       -0.826491        0.881955  
H       5.649879       -2.051365        1.535101  
H       6.552847       -2.788408       -0.679026  
H       5.909457       -1.322559       -1.434431  
H       3.321006       -1.052459       -1.614024  
N       1.890893       -2.416152       -0.920456  
C       1.635160       -3.543966        0.039726  
C       1.658248       -2.866780       -2.330949  
H       0.603108       -3.854993       -0.112845  
H       2.327385       -4.357898       -0.173004  
H       1.754823       -3.171704        1.056988  
H       1.819596       -2.014340       -2.992698  
H       2.353268       -3.673671       -2.565449  
H       0.625893       -3.210669       -2.397081  
S       2.983162        1.638783       -1.508501  
C      -0.951727        3.370010        0.620354  
C       0.367090        3.752665       -1.525327  
C       1.499989        4.111177        0.679799  
H      -1.640485        2.695908        0.101459  
H      -0.862077        2.984487        1.642190  
H       0.005180        4.786478       -1.487330  
H       1.383409        3.782846       -1.923871  
H       1.237608        5.167272        0.544146  
H       2.453714        3.953711        0.164242  
C      -1.547235        4.779741        0.672496  
C       1.659823        3.799557        2.172025  
C      -0.515092        2.925382       -2.460787  
H      -2.495410        4.759464        1.221982  
H      -0.876340        5.479006        1.184090  
H      -1.749335        5.172895       -0.329639  
H      -1.544926        2.850679       -2.093807  
H      -0.546032        3.384750       -3.456115  
H      -0.112081        1.912521       -2.566681  
H       0.751681        4.042519        2.735548  
H       1.881189        2.737502        2.329193  
H       2.485536        4.383301        2.595394  
