83
mapping.S.ts4 optimized geometry
C       6.894774       -1.258156       -1.048838  
C       6.245830       -0.185108       -1.653302  
C       5.117006        0.404091       -1.051195  
C       4.629861       -0.092520        0.182328  
C       5.287956       -1.177144        0.769158  
C       6.412028       -1.753080        0.167308  
H       4.848395        1.847320       -2.655942  
H       7.766099       -1.706643       -1.517633  
H       6.604636        0.214788       -2.598780  
C       4.462294        1.529193       -1.688778  
C       3.346859        0.471166        0.790214  
H       4.926619       -1.588693        1.705950  
H       6.908110       -2.590577        0.650533  
C       2.948940        1.851881        0.213981  
C       3.437076        2.206022       -1.115497  
O       2.190752        2.599496        0.836472  
H       0.119783       -0.923482        0.118224  
C       2.225691       -0.532033        0.310747  
C       0.782620       -0.227202        0.681046  
H       2.255316       -0.580943       -0.783374  
H       2.491426       -1.523253        0.685105  
H       0.482586        0.804445        0.505033  
N       0.414401       -0.533129        2.113056  
O      -0.511147        0.129481        2.607179  
O       0.963732       -1.464840        2.688756  
C       3.409628        0.548924        2.327186  
H       2.999968        3.082953       -1.584828  
H       3.483616       -0.446647        2.768211  
H       4.278154        1.141108        2.633541  
H       2.512147        1.035191        2.714481  
C      -2.738624        0.448802       -0.447919  
N      -2.232303        1.511705        0.231111  
N      -2.570370       -0.732745        0.220570  
H      -2.246092       -0.685152        1.177688  
H      -1.716417        1.259022        1.067300  
C      -2.205313        2.992937        0.023813  
C      -3.008041       -2.054329       -0.207429  
C      -1.879445       -3.101173       -0.064922  
C      -4.255166       -2.491125        0.584475  
H      -3.284946       -1.968554       -1.259964  
C      -2.403162       -4.469780       -0.557497  
C      -4.759159       -3.866115        0.126401  
H      -3.999214       -2.527729        1.653735  
H      -5.029342       -1.726430        0.454022  
C      -3.643910       -4.914756        0.230915  
H      -1.610166       -5.219178       -0.464662  
H      -2.657878       -4.390295       -1.622431  
H      -5.628734       -4.165078        0.724297  
H      -5.090559       -3.795220       -0.919334  
H      -3.994268       -5.886967       -0.137128  
H      -3.369580       -5.046042        1.287856  
H      -1.648218       -3.198659        1.006732  
N      -0.621023       -2.658163       -0.701604  
C      -0.710743       -2.418277       -2.144241  
C       0.500705       -3.544361       -0.385200  
H       0.249421       -2.015927       -2.487963  
H      -0.920485       -3.337119       -2.720726  
H      -1.488339       -1.678314       -2.356224  
H       0.560610       -3.683340        0.699820  
H       0.420004       -4.536171       -0.864892  
H       1.429855       -3.079093       -0.731255  
S      -3.493674        0.493406       -1.979287  
C      -3.459755        3.514845       -0.706884  
C      -0.892482        3.379871       -0.700120  
C      -2.124313        3.583260        1.458841  
H      -3.447427        3.150813       -1.733594  
H      -4.342476        3.071626       -0.233787  
H      -0.853027        4.474752       -0.749502  
H      -0.058421        3.074564       -0.058264  
H      -1.938028        4.657261        1.362239  
H      -1.232913        3.161780        1.943803  
C      -3.590565        5.045223       -0.711357  
C      -3.356788        3.340961        2.335939  
C      -0.695901        2.790184       -2.097836  
H      -3.707489        5.453290        0.298900  
H      -2.717338        5.522542       -1.170592  
H      -4.472855        5.333741       -1.294403  
H      -1.475147        3.124672       -2.791031  
H       0.277225        3.099802       -2.498592  
H      -0.728588        1.696537       -2.067963  
H      -4.237175        3.853553        1.933512  
H      -3.589016        2.271497        2.399942  
H      -3.180077        3.713788        3.351312  
