23
bp5
Si       0.000000      0.000000      0.000000
O      -1.782813      0.099791     -0.100418
C      -2.522392      0.505796     -1.101860
C      -3.954317      0.181913     -1.097221
H      -2.258471      1.452791     -1.577871
C      -4.470934     -0.846698     -0.289608
C      -4.813558      0.925909     -1.924545
C      -5.836755     -1.118854     -0.309884
H      -3.798970     -1.414342      0.346228
C      -6.179189      0.648374     -1.940938
H      -4.405665      1.717392     -2.548978
C      -6.691774     -0.375211     -1.134878
H      -6.239404     -1.909662      0.316638
H      -6.843250      1.226935     -2.576612
H      -7.756219     -0.592884     -1.147525
C      -1.845342     -0.819228     -2.631891
C      -0.668958     -0.101817     -2.746566
H      -2.515004     -0.811192     -3.484740
H      -1.936398     -1.633411     -1.923571
O       0.221339      0.081683     -1.813312
Cl      -0.186266      0.134787      2.211046
Cl      -0.000425     -2.215231     -0.015539
H      -0.481709      0.484893     -3.651454
