23
bp6
Si       0.000000      0.000000      0.000000
O      -1.783759      0.080254     -0.102232
C      -2.572401     -0.873977     -0.535484
C      -4.011609     -0.767211     -0.270288
H      -2.289790     -1.381704     -1.459431
C      -4.515862      0.080672      0.732210
C      -4.894382     -1.536428     -1.048777
C      -5.890244      0.158622      0.943890
H      -3.827028      0.669417      1.329683
C      -6.268759     -1.454903     -0.831728
H      -4.496466     -2.192481     -1.819218
C      -6.768099     -0.608570      0.165517
H      -6.282054      0.815940      1.715015
H      -6.949700     -2.046448     -1.436887
H      -7.839308     -0.545377      0.336284
C      -2.059731     -2.440263      0.836705
C      -0.850937     -2.655331      0.201425
H      -2.792945     -3.238036      0.793840
H      -2.143859     -1.714599      1.636326
O       0.124200     -1.795098      0.087544
Cl       0.162061     -0.150836     -2.256723
Cl      -0.157396      0.155336      2.247162
H      -0.687574     -3.580567     -0.358861
