23
bp7
Si       0.000000      0.000000      0.000000
O       0.035178      0.154081      1.806604
C      -0.879018      0.665069      2.588219
C      -0.786011      0.414832      4.030706
H      -1.330208      1.616012      2.296747
C      -0.009000     -0.638199      4.546542
C      -1.482613      1.266903      4.905352
C       0.072952     -0.826052      5.924016
H       0.517430     -1.297359      3.863946
C      -1.397171      1.073958      6.283171
H      -2.084453      2.076192      4.499036
C      -0.620177      0.027313      6.793825
H       0.673374     -1.638082      6.324355
H      -1.932503      1.735514      6.958074
H      -0.554959     -0.124981      7.867626
C      -2.528458     -0.624748      2.069250
C      -2.675920      0.048834      0.872226
H      -3.336594     -0.543780      2.787738
H      -1.848734     -1.463527      2.157390
O      -1.794835      0.134220     -0.087750
Cl       0.053424     -2.206771      0.234045
Cl       0.092760     -0.095751     -2.208225
H      -3.557425      0.675571      0.709214
