23
bp8
Si       0.000000      0.000000      0.000000
O       0.019038      0.198171      1.790327
C      -0.632868     -0.535768      2.668189
C      -0.370584     -0.302155      4.103048
H      -1.663202     -0.800446      2.425194
C       0.678469      0.523169      4.538682
C      -1.216647     -0.909994      5.046459
C       0.881417      0.730403      5.902277
H       1.309958      1.014671      3.808209
C      -1.008249     -0.703797      6.408779
H      -2.031741     -1.544061      4.706438
C       0.044024      0.113640      6.839759
H       1.687651      1.377975      6.235686
H      -1.665056     -1.175257      7.134120
H       0.205633      0.275547      7.901867
C       0.253726     -2.387212      2.444499
C      -0.267141     -2.531590      1.166616
H      -0.120053     -3.045566      3.221112
H       1.243628     -1.971710      2.585106
O       0.087651     -1.807930      0.148414
Cl       0.196103     -0.212731     -2.197668
Cl      -2.233739      0.008499     -0.083230
H      -1.113915     -3.205692      0.997604
