83
mapping.R.ts2 optimized geometry
C       4.945526       -0.010205       -0.119168  
C       4.104227       -0.143490       -1.218558  
C       3.078270       -1.107631       -1.225691  
C       2.905041       -1.964484       -0.114633  
C       3.752227       -1.808373        0.986423  
C       4.761914       -0.841700        0.991075  
H       2.351548       -0.512116       -3.184090  
H       5.729834        0.741019       -0.118307  
H       4.218602        0.506499       -2.081028  
C       2.192974       -1.213650       -2.366907  
C       1.841624       -3.058910       -0.121377  
H       3.632343       -2.453607        1.851577  
H       5.405748       -0.741270        1.860551  
C       0.943866       -3.085959       -1.385696  
C       1.193723       -2.126913       -2.451512  
O       0.045243       -3.928238       -1.471891  
H      -0.661252       -1.542548        0.497882  
C       0.923318       -2.952273        1.129137  
C       0.195338       -1.617547        1.193997  
H       0.207216       -3.776148        1.095739  
H       1.540069       -3.080299        2.022723  
H       0.860099       -0.768597        1.018178  
N      -0.429807       -1.351755        2.547386  
O      -0.843394       -0.198810        2.744382  
O      -0.530744       -2.258392        3.361095  
C       2.556392       -4.439152       -0.070318  
H       0.544303       -2.174814       -3.320783  
H       1.804847       -5.234288       -0.077934  
H       3.218343       -4.560028       -0.934513  
H       3.154623       -4.510499        0.843101  
C      -1.021408        1.840528       -0.429356  
N       0.188966        1.848865        0.211323  
N      -1.953331        1.078923        0.194391  
H      -1.697084        0.644057        1.074266  
H       0.165038        1.375849        1.105804  
C       1.311851        2.840654        0.139521  
C      -3.311053        0.796784       -0.254578  
C      -3.693630       -0.654630        0.103588  
C      -4.304905        1.796528        0.367496  
H      -3.333600        0.922758       -1.340019  
C      -5.143488       -0.927408       -0.359259  
C      -5.746047        1.507451       -0.073663  
H      -4.231520        1.724778        1.462007  
H      -3.996685        2.806826        0.076716  
C      -6.133293        0.063423        0.270365  
H      -5.421389       -1.954548       -0.099889  
H      -5.193146       -0.839816       -1.452231  
H      -6.433308        2.217215        0.402803  
H      -5.826919        1.654033       -1.160333  
H      -7.151894       -0.155074       -0.073601  
H      -6.124354       -0.062130        1.362989  
H      -3.674492       -0.737844        1.201048  
N      -2.690448       -1.624604       -0.384920  
C      -2.543491       -1.653960       -1.843666  
C      -2.919614       -2.970392        0.146591  
H      -1.761304       -2.374208       -2.096387  
H      -3.471178       -1.957497       -2.361554  
H      -2.242020       -0.668133       -2.210600  
H      -3.008383       -2.919486        1.238336  
H      -3.833308       -3.446757       -0.253099  
H      -2.065070       -3.602456       -0.114945  
S      -1.359345        2.644388       -1.898590  
C       0.736324        4.233776        0.495959  
C       1.953385        2.780035       -1.278949  
C       2.345032        2.367087        1.194230  
H      -0.040979        4.462376       -0.239254  
H       0.235990        4.141194        1.467203  
H       1.902669        1.734725       -1.603608  
H       1.313969        3.344817       -1.960826  
H       3.221908        3.011075        1.099796  
H       2.673209        1.358770        0.914414  
C       1.738895        5.393052        0.553635  
C       1.902981        2.390746        2.665755  
C       3.407992        3.256763       -1.425689  
H       1.249874        6.281271        0.971479  
H       2.604120        5.158370        1.184883  
H       2.105076        5.656231       -0.443478  
H       4.100698        2.630117       -0.856421  
H       3.695311        3.193012       -2.482483  
H       3.549739        4.291715       -1.103867  
H       1.661658        3.408327        2.990410  
H       1.029807        1.759273        2.871164  
H       2.720420        2.020261        3.295163  
