83
mapping.R.ts4 optimized geometry
C       5.283734       -1.777939        0.413337  
C       4.770802       -0.958927        1.415128  
C       4.227276        0.302579        1.102722  
C       4.181675        0.744291       -0.242087  
C       4.702433       -0.092754       -1.233010  
C       5.255898       -1.336253       -0.913374  
H       3.753966        0.760819        3.175620  
H       5.702492       -2.749238        0.660490  
H       4.788227       -1.280174        2.453780  
C       3.728073        1.158410        2.162363  
C       3.482887        2.053407       -0.599987  
H       4.670419        0.213131       -2.273188  
H       5.653450       -1.964720       -1.705471  
C       3.285986        3.008859        0.607748  
C       3.279161        2.418780        1.945142  
O       3.084914        4.210621        0.437291  
H       0.434909        0.260967       -0.702576  
C       2.037198        1.693314       -1.113172  
C       1.151965        0.897755       -0.163767  
H       1.534641        2.619306       -1.406943  
H       2.169175        1.086629       -2.013862  
H       1.708240        0.235163        0.499552  
N       0.284696        1.729290        0.768298  
O      -0.237953        1.109776        1.706731  
O       0.091699        2.913775        0.541345  
C       4.198061        2.808402       -1.737961  
H       2.962669        3.057382        2.765070  
H       5.240027        3.008545       -1.468087  
H       4.178956        2.224554       -2.662306  
H       3.689848        3.758553       -1.917785  
C      -2.935928       -0.801236       -0.045685  
N      -3.142457        0.473153        0.382539  
N      -1.778445       -1.350148        0.412639  
H      -1.164860       -0.764289        0.966862  
H      -2.450481        0.823248        1.033025  
C      -4.038249        1.545747       -0.138112  
C      -1.359190       -2.740542        0.302498  
C       0.123835       -2.836795       -0.121188  
C      -1.594066       -3.482702        1.631754  
H      -1.982806       -3.202410       -0.465898  
C       0.509818       -4.330439       -0.239849  
C      -1.177403       -4.956679        1.535187  
H      -1.011558       -2.984477        2.420357  
H      -2.654298       -3.391075        1.893833  
C       0.284251       -5.076049        1.083497  
H       1.558984       -4.414854       -0.542640  
H      -0.098498       -4.793187       -1.028158  
H      -1.325809       -5.452794        2.502066  
H      -1.822990       -5.464452        0.804658  
H       0.567996       -6.130125        0.974016  
H       0.937207       -4.642113        1.855082  
H       0.727694       -2.404431        0.692823  
N       0.421402       -2.017603       -1.311329  
C      -0.335264       -2.375439       -2.512646  
C       1.853431       -1.956188       -1.587469  
H      -0.084479       -1.659499       -3.304222  
H      -0.100266       -3.390004       -2.884737  
H      -1.409659       -2.306937       -2.317010  
H       2.394126       -1.656890       -0.683925  
H       2.279132       -2.914643       -1.937120  
H       2.036306       -1.208052       -2.366542  
S      -4.015307       -1.670230       -1.046343  
C      -3.586863        2.809360        0.640829  
C      -5.523935        1.224377        0.146902  
C      -3.849940        1.735479       -1.661956  
H      -3.662536        2.589245        1.712907  
H      -2.525160        2.983462        0.433279  
H      -6.117232        2.053437       -0.256650  
H      -5.784611        0.332001       -0.427937  
H      -4.467651        2.589944       -1.960691  
H      -4.261750        0.854353       -2.162249  
C      -4.375919        4.084346        0.333646  
C      -2.402291        1.946692       -2.118903  
C      -5.866753        1.002910        1.623337  
H      -3.980663        4.915416        0.928611  
H      -4.296510        4.360806       -0.723343  
H      -5.437512        3.968654        0.578319  
H      -6.915721        0.701894        1.728328  
H      -5.240288        0.209596        2.048136  
H      -5.716858        1.911586        2.218463  
H      -1.947019        2.826088       -1.649671  
H      -1.787709        1.072593       -1.874785  
H      -2.366378        2.087855       -3.205502  
