83
mapping.R.ts5 optimized geometry
C       5.288237       -0.600468       -0.850119  
C       4.360920       -0.946310       -1.827290  
C       3.169864       -1.614193       -1.484134  
C       2.911840       -1.954830       -0.136438  
C       3.849099       -1.588273        0.833300  
C       5.025999       -0.917778        0.486164  
H       2.427490       -1.614456       -3.526287  
H       6.200088       -0.076657       -1.121174  
H       4.537388       -0.692904       -2.869545  
C       2.202855       -1.938973       -2.511608  
C       1.613290       -2.654249        0.267472  
H       3.664916       -1.823064        1.877098  
H       5.735906       -0.643557        1.261719  
C       0.752604       -3.133348       -0.932333  
C       1.064618       -2.631864       -2.263906  
O      -0.196797       -3.899351       -0.743393  
H      -1.387554       -1.815445        0.781483  
C       0.775392       -1.569927        1.033365  
C      -0.596186       -2.055966        1.521298  
H       0.651972       -0.697882        0.386742  
H       1.380589       -1.258333        1.890135  
H      -0.625068       -3.115392        1.759851  
N      -1.028822       -1.340062        2.772685  
O      -1.553854       -1.990177        3.669516  
O      -0.874049       -0.108068        2.820103  
C       1.915502       -3.864439        1.181260  
H       0.373437       -2.888840       -3.061265  
H       2.345885       -3.529466        2.129451  
H       1.001926       -4.427038        1.384603  
H       2.629392       -4.533470        0.689762  
C      -0.810644        1.816187       -0.399210  
N       0.272389        1.855697        0.421658  
N      -1.817526        1.022869        0.066084  
H      -1.710124        0.640005        0.997795  
H       0.183751        1.310317        1.268707  
C       1.596953        2.536445        0.285907  
C      -3.174382        0.964195       -0.469076  
C      -3.831828       -0.393800       -0.147598  
C      -4.034610        2.121337        0.074571  
H      -3.098616        1.075986       -1.553617  
C      -5.244930       -0.414796       -0.779180  
C      -5.448615        2.092078       -0.520638  
H      -4.089437        2.031138        1.168917  
H      -3.526363        3.062203       -0.162175  
C      -6.114867        0.736382       -0.253183  
H      -5.726885       -1.374106       -0.564791  
H      -5.148509       -0.330877       -1.869547  
H      -6.050380        2.908481       -0.102938  
H      -5.383415        2.255932       -1.605779  
H      -7.108315        0.696429       -0.716930  
H      -6.256399        0.611762        0.830317  
H      -3.957119       -0.455414        0.944753  
N      -2.971755       -1.538069       -0.512896  
C      -2.566199       -1.576961       -1.920125  
C      -3.541380       -2.821600       -0.094611  
H      -1.907446       -2.439082       -2.060007  
H      -3.423825       -1.678730       -2.609407  
H      -2.011628       -0.669487       -2.177175  
H      -3.829015       -2.762671        0.961988  
H      -4.428138       -3.116319       -0.682554  
H      -2.776175       -3.595834       -0.211578  
S      -0.940992        2.636387       -1.893213  
C       1.383002        4.072445        0.157967  
C       2.331329        1.893460       -0.919433  
C       2.367674        2.182279        1.581596  
H       1.063498        4.283741       -0.865161  
H       0.537837        4.336205        0.804340  
H       2.515536        0.845451       -0.658849  
H       1.643637        1.898589       -1.769227  
H       3.374149        2.597739        1.481605  
H       2.486197        1.091653        1.612950  
C       2.570821        4.978010        0.527392  
C       1.740479        2.670674        2.896016  
C       3.650919        2.539649       -1.355258  
H       2.271235        6.025389        0.399757  
H       2.878857        4.846926        1.569992  
H       3.445916        4.803212       -0.102028  
H       4.359414        2.639387       -0.525022  
H       4.122817        1.913286       -2.119695  
H       3.484330        3.530887       -1.789445  
H       1.581355        3.753406        2.888012  
H       0.772772        2.195445        3.093491  
H       2.401034        2.428798        3.736626  
