79
mapping.S.ts2 optimized geometry
C       2.620609        6.037851       -1.365323  
C       2.972426        4.697505       -1.276316  
C       2.003162        3.713391       -0.982043  
C       0.645703        4.106243       -0.767108  
C       0.311873        5.476031       -0.860221  
C       1.280576        6.425671       -1.158703  
H       3.365215        2.023807       -1.079147  
H       3.373640        6.786854       -1.595122  
H       4.002442        4.386455       -1.437773  
C       2.328481        2.315671       -0.919262  
C      -0.324020        3.109115       -0.401568  
H      -0.720323        5.779280       -0.696349  
H       1.004558        7.474672       -1.232538  
C      -0.020118        1.700748       -0.503421  
C       1.380042        1.358547       -0.695243  
O      -0.899449        0.793112       -0.379508  
H      -2.497065        0.434669       -0.406241  
C      -0.155295        3.200547        1.808481  
C      -1.125970        2.407347        2.392906  
H       0.879181        2.877829        1.813265  
H      -0.341698        4.267555        1.766628  
H      -2.144367        2.734575        2.550112  
N      -0.910633        1.081178        2.714776  
O      -1.910269        0.387491        3.113658  
O       0.240067        0.565035        2.638453  
H      -1.371673        3.394080       -0.405402  
H       1.642427        0.306873       -0.691149  
C      -1.203292       -2.185629        0.434754  
N       0.008081       -1.855963        1.006122  
N      -2.243518       -1.630000        1.108182  
H      -2.027099       -1.001848        1.888691  
H      -0.042466       -1.192888        1.785691  
C       1.324913       -1.973877        0.548169  
C       2.323887       -1.592412        1.469197  
C       1.717596       -2.353987       -0.743054  
C       3.662220       -1.578430        1.097217  
H       2.034842       -1.281154        2.466266  
C       3.071728       -2.340224       -1.091669  
H       0.968948       -2.633442       -1.470272  
C       4.059954       -1.952163       -0.191648  
H       5.104547       -1.938556       -0.474942  
C      -3.679449       -1.699519        0.814907  
C      -4.043209       -1.028901       -0.528417  
C      -4.266868       -3.121821        0.931778  
H      -4.139708       -1.103872        1.610656  
C      -5.544983       -1.103154       -0.826304  
C      -5.772044       -3.135340        0.638692  
H      -3.751958       -3.779393        0.228012  
H      -4.057608       -3.482144        1.944924  
C      -6.047341       -2.552446       -0.753316  
H      -5.745915       -0.680077       -1.815523  
H      -6.109320       -0.510907       -0.096615  
H      -6.147631       -4.162579        0.707859  
H      -6.308356       -2.538767        1.391130  
H      -7.119155       -2.571905       -0.979580  
H      -5.537196       -3.159292       -1.513292  
C       3.422254       -2.739474       -2.506794  
C       4.703192       -1.070453        2.067175  
F       2.800221       -1.937989       -3.423171  
F       3.026175       -4.016895       -2.784569  
F       4.753993       -2.674039       -2.767044  
F       4.951848        0.262268        1.872147  
F       4.329547       -1.209410        3.366710  
F       5.898194       -1.709319        1.925328  
H      -3.483292       -1.524281       -1.323928  
S      -1.381036       -3.203824       -0.913390  
C      -3.761931        1.120601       -1.881577  
C      -4.120696        1.314356        0.540347  
C      -4.786375        2.212228       -1.587282  
H      -4.063909        0.390962       -2.632801  
H      -2.793472        1.544362       -2.157004  
C      -4.417520        2.642006       -0.157995  
H      -3.390767        1.369281        1.346800  
H      -5.035697        0.860907        0.918807  
H      -4.719484        3.028675       -2.310700  
H      -5.801467        1.801469       -1.612385  
H      -3.525096        3.275609       -0.173175  
H      -5.219561        3.184660        0.348763  
N      -3.543152        0.410914       -0.545226  
