79
mapping.S.ts3 optimized geometry
C       1.124649        6.372582       -1.155231  
C       1.753642        5.144108       -0.996980  
C       0.998960        3.953461       -0.929836  
C      -0.422150        4.014275       -1.014193  
C      -1.041146        5.269739       -1.173389  
C      -0.279635        6.431541       -1.249287  
H       2.706395        2.622883       -0.749372  
H       1.711972        7.285040       -1.210786  
H       2.837620        5.083112       -0.929157  
C       1.621391        2.661423       -0.825278  
C      -1.182131        2.797210       -0.823656  
H      -2.126233        5.321392       -1.236160  
H      -0.772105        7.391765       -1.381101  
C      -0.540281        1.503342       -0.960796  
C       0.905843        1.499189       -0.881434  
O      -1.181727        0.413985       -1.096035  
H      -2.682948       -0.047228       -0.731432  
C      -1.426915        2.915224        1.290624  
C      -0.223724        2.992838        1.990023  
H      -2.017931        2.013576        1.409868  
H      -1.975887        3.842395        1.163051  
H       0.375599        3.890227        2.050159  
N       0.362165        1.892466        2.575973  
O       1.498688        1.993513        3.104352  
O      -0.268816        0.771389        2.620252  
H      -2.242570        2.839094       -1.062559  
H       1.407645        0.538068       -0.879982  
C      -0.856904       -2.038151        0.744137  
N       0.357861       -1.481617        1.078576  
N      -1.888891       -1.330594        1.286692  
H      -1.644506       -0.451284        1.732517  
H       0.292939       -0.679711        1.720384  
C       1.649793       -1.633845        0.572629  
C       2.032608       -2.479057       -0.479403  
C       2.630409       -0.807321        1.164962  
C       3.359838       -2.482400       -0.919168  
H       1.297222       -3.116806       -0.949190  
C       3.942708       -0.829144        0.708306  
H       2.348963       -0.131253        1.968239  
C       4.330646       -1.666297       -0.343500  
H       5.353497       -1.678293       -0.696233  
C      -3.321011       -1.649003        1.313003  
C      -3.980954       -1.618704       -0.085404  
C      -3.632012       -2.962189        2.061086  
H      -3.762897       -0.836347        1.900536  
C      -5.481903       -1.928621       -0.004304  
C      -5.139431       -3.238053        2.117860  
H      -3.128141       -3.786825        1.551085  
H      -3.207052       -2.878097        3.067101  
C      -5.728038       -3.268939        0.702478  
H      -5.917218       -1.949309       -1.007894  
H      -5.998589       -1.142146        0.559166  
H      -5.316725       -4.190533        2.630140  
H      -5.643307       -2.453725        2.701403  
H      -6.805514       -3.465003        0.733451  
H      -5.261304       -4.079622        0.127219  
C       4.938870        0.133777        1.311874  
C       3.708931       -3.417756       -2.054622  
F       4.743449        0.319804        2.644564  
F       4.847970        1.370916        0.728941  
F       6.226760       -0.275197        1.151080  
F       3.511230       -4.725179       -1.709027  
F       2.930014       -3.190686       -3.153855  
F       5.001584       -3.309211       -2.459025  
H      -3.479130       -2.354348       -0.717203  
S      -1.058223       -3.440067       -0.187346  
C      -4.026098       -0.301657       -2.262075  
C      -4.457502        0.913240       -0.172038  
C      -4.678121        1.051143       -2.547642  
H      -4.709521       -1.125843       -2.466309  
H      -3.082013       -0.468405       -2.781440  
C      -5.447560        1.344813       -1.250022  
H      -3.704279        1.682220        0.005044  
H      -4.909036        0.636559        0.779288  
H      -3.911772        1.815413       -2.715481  
H      -5.323092        1.003622       -3.428549  
H      -5.724418        2.396555       -1.141661  
H      -6.354941        0.734033       -1.196920  
N      -3.721136       -0.283943       -0.764765  
