93
F:55-60;
P       2.213709        0.818952       -1.145421  
C       2.244222        2.561398       -0.500418  
O       3.617990        2.965671       -0.400018  
H       1.756671        3.243957       -1.204962  
P      -0.050327        1.749253        0.925749  
C       1.571466        2.676753        0.866793  
O       1.280279        4.057110        1.121564  
H       2.250519        2.330721        1.653410  
C      -0.322565        1.588909        2.728349  
C       2.264323        1.067246       -2.952824  
H      -0.288782        2.564200        3.220043  
H      -1.286581        1.115645        2.925937  
H       0.461930        0.941320        3.128929  
H       3.124449        1.678166       -3.236666  
H       2.306672        0.113768       -3.480976  
H       1.341479        1.572147       -3.249769  
C      -0.865010        3.303886        0.428735  
C       0.044240        4.362529        0.618234  
C      -0.267576        5.680309        0.308142  
H       0.465127        6.463664        0.468563  
C      -2.141482        3.581128       -0.093979  
C      -2.437917        4.909493       -0.439366  
H      -3.423403        5.135836       -0.836419  
C      -1.522239        5.938243       -0.234095  
H      -1.791055        6.956509       -0.498791  
C       3.922563        0.614033       -0.567514  
C       4.432549        1.880573       -0.230753  
C       5.720408        2.057961        0.262861  
C       4.717789       -0.531633       -0.355396  
C       6.006747       -0.345858        0.167904  
H       6.640884       -1.214461        0.319091  
C       6.500759        0.923887        0.456997  
H       6.079111        3.053369        0.501804  
H       7.508715        1.030170        0.846805  
Rh       0.467513       -0.339060       -0.143178  
C      -4.119137       -1.918220       -1.354998  
C      -2.795630       -1.643888       -0.989586  
C      -2.387849       -1.806173        0.331721  
C      -3.327030       -2.195496        1.306698  
C      -4.642121       -2.462013        0.927002  
C      -5.045336       -2.348612       -0.408495  
O      -4.415420       -1.724998       -2.668850  
H      -2.104863       -1.299102       -1.753400  
H      -3.005825       -2.304894        2.337484  
O      -5.625382       -2.831098        1.794967  
H      -6.080048       -2.554507       -0.655794  
C      -0.982299       -1.690879        0.774011  
H      -0.871517       -1.536833        1.848304  
C      -0.250257       -3.593518       -0.809133  
H      -0.753551       -4.420256       -0.294318  
H      -0.919312       -3.234703       -1.587626  
H       0.661431       -3.971872       -1.275656  
N       1.106892       -2.922383        1.096082  
H       1.305937       -3.913253        1.146266  
C       0.054457       -2.515242        0.196451  
C       1.812655       -2.073965        1.871083  
O       1.728758       -0.837196        1.705363  
C      -3.214411        2.575874       -0.221598  
C       4.266279       -1.903806       -0.658556  
H       0.973805       -1.664047       -0.918843  
H      -0.397803       -0.077789       -1.396062  
C       2.672701       -2.654870        2.942395  
H       2.125713       -2.618823        3.889360  
H       2.944537       -3.693941        2.748012  
H       3.573670       -2.051260        3.056025  
C      -5.279131       -2.932612        3.168076  
H      -4.508207       -3.694682        3.330450  
H      -4.926794       -1.971628        3.562112  
H      -6.191195       -3.223967        3.687156  
C      -5.752137       -1.975723       -3.077591  
H      -6.033642       -3.019835       -2.899432  
H      -6.458939       -1.318243       -2.556735  
H      -5.784200       -1.767710       -4.146111  
C       4.611238       -2.961562        0.198881  
C       3.537636       -2.206190       -1.817259  
C       3.492007       -4.550436       -1.235113  
C       3.157610       -3.514454       -2.106089  
C       4.223683       -4.267997       -0.081632  
H       5.178202       -2.750507        1.102427  
H       4.495017       -5.067637        0.602827  
H       3.193662       -5.570716       -1.459557  
H       2.606469       -3.724098       -3.018901  
H       3.311989       -1.418814       -2.530241  
C      -4.015626        2.533857       -1.372255  
C      -3.547657        1.748251        0.859284  
C      -5.474252        0.916600       -0.330883  
C      -4.675441        0.934576        0.810329  
C      -5.130893        1.703742       -1.429448  
H      -3.760232        3.162216       -2.222296  
H      -5.738337        1.677153       -2.330373  
H      -6.354536        0.280262       -0.365304  
H      -4.936638        0.322201        1.669118  
H      -2.961400        1.801092        1.773642  
