93
F:47-60;
P      -0.214168        2.000627       -1.193257  
C      -1.727283        2.839383       -0.529163  
O      -1.447765        4.246817       -0.479090  
H      -2.583916        2.700015       -1.196897  
P      -2.031884        0.460708        0.977268  
C      -2.065686        2.329921        0.869826  
O      -3.382530        2.767261        1.223660  
H      -1.369948        2.764214        1.597150  
C      -1.736484        0.224635        2.769829  
C      -0.389252        2.221130       -2.996346  
H      -2.483272        0.753441        3.367184  
H      -1.750248       -0.833899        3.034698  
H      -0.738045        0.609213        2.998769  
H      -0.602753        3.266907       -3.231076  
H       0.519873        1.914391       -3.516230  
H      -1.209819        1.588826       -3.343463  
C      -3.846408        0.482443        0.765702  
C      -4.302927        1.803476        0.921868  
C      -5.641142        2.154058        0.782934  
H      -5.947231        3.186561        0.912826  
C      -4.776163       -0.528644        0.453526  
C      -6.119864       -0.164863        0.280082  
H      -6.844594       -0.940251        0.048395  
C      -6.544061        1.151048        0.450107  
H      -7.594190        1.397152        0.323883  
C       0.770793        3.399002       -0.590772  
C      -0.106769        4.458933       -0.298496  
C       0.340669        5.687971        0.170138  
C       2.151449        3.553446       -0.353393  
C       2.592557        4.791404        0.141493  
H       3.654851        4.935935        0.315025  
C       1.707633        5.839463        0.381196  
H      -0.367931        6.482503        0.377583  
H       2.088089        6.787103        0.750366  
Rh      -0.171823       -0.185394       -0.426305  
C       4.764004       -2.875095       -0.067410  
C       3.486208       -2.755866       -0.634415  
C       2.507508       -2.003886        0.010351  
C       2.803686       -1.351627        1.216636  
C       4.076627       -1.479072        1.765458  
C       5.065488       -2.249337        1.137023  
O       5.656664       -3.606429       -0.786291  
H       3.284197       -3.245719       -1.582598  
H       2.058258       -0.719123        1.683010  
O       4.465122       -0.869169        2.917401  
H       6.047881       -2.303702        1.591425  
C       1.174207       -1.965250       -0.639054  
H       1.211977       -2.245416       -1.692140  
C      -0.146095       -2.829461        1.409687  
H      -1.119749       -2.614588        1.853823  
H      -0.009765       -3.919572        1.432446  
H       0.626431       -2.389509        2.039676  
N      -1.037002       -2.922866       -0.881851  
H      -1.297166       -3.887705       -0.711380  
C      -0.063395       -2.321695        0.003641  
C      -1.511601       -2.306623       -1.979251  
O      -1.298338       -1.084694       -2.168972  
C       3.143192        2.484132       -0.581013  
C      -4.422259       -1.959406        0.365188  
H       1.243940       -0.310216       -1.178085  
H       0.646795        0.365074        0.772219  
C      -2.270970       -3.112166       -2.979901  
H      -3.215950       -2.617724       -3.212593  
H      -1.687790       -3.155007       -3.903716  
H      -2.468818       -4.131012       -2.644026  
C       3.506291       -0.053279        3.574763  
H       3.196254        0.785471        2.939026  
H       2.621937       -0.633661        3.865029  
H       3.998689        0.329457        4.467691  
C       6.978286       -3.703903       -0.273068  
H       7.441904       -2.714442       -0.182291  
H       6.989342       -4.199405        0.704218  
H       7.536148       -4.302912       -0.991182  
C      -3.699702       -2.582963        1.390129  
C      -4.892334       -2.747328       -0.696113  
C      -3.914645       -4.723973        0.295029  
C      -4.635154       -4.114479       -0.733591  
C      -3.452487       -3.953686        1.360077  
H      -3.384623       -1.994575        2.249093  
H      -2.906984       -4.421794        2.175267  
H      -3.726243       -5.793656        0.271143  
H      -4.997120       -4.706695       -1.569931  
H      -5.454299       -2.276787       -1.499961  
C       3.115223        1.665917       -1.718312  
C       4.181855        2.297358        0.345487  
C       5.124498        0.532073       -1.004505  
C       5.159600        1.330011        0.138400  
C       4.095632        0.698723       -1.928945  
H       2.345134        1.815762       -2.470618  
H       4.058326        0.080240       -2.821882  
H       5.888723       -0.222668       -1.169217  
H       5.944712        1.189671        0.876955  
H       4.209271        2.909082        1.244303  
