90
mapping.S.ts1 optimized geometry
C      -4.508916        1.687353       -0.211317  
C      -3.821630        1.580233        0.993054  
C      -2.559485        2.182593        1.157210  
C      -1.983685        2.917998        0.094558  
C      -2.688869        3.015458       -1.108551  
C      -3.936045        2.403004       -1.267214  
H      -2.341307        1.478912        3.200386  
H      -5.477633        1.212994       -0.332314  
H      -4.248586        1.023102        1.821753  
C      -1.850861        2.047338        2.412667  
C      -0.661107        3.653708        0.287282  
H      -2.272466        3.580076       -1.937154  
H      -4.458446        2.485991       -2.216138  
C       0.100885        3.285429        1.586230  
C      -0.616194        2.564797        2.628517  
O       1.268025        3.655884        1.738652  
H       1.336617        1.614040       -0.587731  
C       0.280464        3.516249       -0.934868  
C       0.597129        2.064139       -1.261354  
H       1.199117        4.066000       -0.723272  
H      -0.193105        3.986825       -1.799495  
H      -0.291371        1.429347       -1.271683  
N       1.212892        1.898505       -2.645023  
O       1.226872        0.750189       -3.109943  
O       1.676132        2.870555       -3.217807  
C      -0.996390        5.169475        0.455011  
H      -0.096188        2.415529        3.570240  
H      -1.651255        5.325416        1.318708  
H      -0.068623        5.733119        0.598060  
H      -1.508270        5.525520       -0.444552  
C       1.211817       -2.135918       -0.750409  
N       0.042200       -1.498614       -1.157074  
N       2.295586       -1.628511       -1.381609  
H       2.120405       -0.762327       -1.875826  
H       0.101981       -0.962097       -2.015053  
C      -1.256016       -1.631308       -0.646687  
C      -2.329522       -1.575765       -1.543809  
C      -1.513154       -1.729439        0.730114  
C      -3.642115       -1.651550       -1.072368  
H      -2.135201       -1.478550       -2.607331  
C      -2.828683       -1.819772        1.178393  
H      -0.692151       -1.712118        1.431250  
C      -3.906085       -1.799319        0.287425  
H      -4.923804       -1.863665        0.650707  
C       3.728927       -1.772307       -1.067145  
C       4.095240       -1.032709        0.255876  
C       4.252970       -3.217932       -1.095642  
H       4.220713       -1.256680       -1.893862  
C       5.619213       -1.128730        0.495980  
C       5.772581       -3.234618       -0.881827  
H       3.774168       -3.802550       -0.307459  
H       3.983262       -3.670221       -2.057487  
C       6.122838       -2.578647        0.460447  
H       5.855074       -0.662608        1.456269  
H       6.146361       -0.560601       -0.278118  
H       6.136398       -4.268649       -0.915308  
H       6.271673       -2.684810       -1.693756  
H       7.206568       -2.599523        0.630501  
H       5.652289       -3.149821        1.273737  
C      -3.098809       -1.966953        2.657521  
C      -4.770701       -1.630426       -2.075578  
F      -2.114270       -1.428475        3.427188  
F      -3.206652       -3.279463        3.020340  
F      -4.265395       -1.365450        3.032063  
F      -4.554018       -0.724066       -3.071267  
F      -4.921495       -2.844782       -2.685820  
F      -5.970354       -1.323944       -1.514395  
H       3.608434       -1.618955        1.042435  
N       3.514033        0.320957        0.340240  
C       4.168203        1.481080       -0.306433  
C       2.925426        0.653668        1.661588  
H       3.387812        2.254902       -0.318578  
H       2.750446        1.733044        1.645533  
S       1.207611       -3.423108        0.343955  
C       1.564082       -0.028086        1.846603  
C       3.809831        0.348434        2.889937  
C       4.549746        1.243542       -1.773750  
C       5.357382        2.129282        0.443310  
H       3.721526        0.820292       -2.349565  
H       4.817685        2.205628       -2.223260  
H       5.413581        0.579716       -1.873243  
H       6.220153        1.461182        0.505914  
H       5.661344        3.036654       -0.094132  
H       5.065028        2.422981        1.455393  
H       0.888066        0.206376        1.018979  
H       1.676300       -1.115792        1.891753  
H       1.099973        0.308880        2.779554  
H       3.313540        0.720029        3.794686  
H       3.952731       -0.732464        3.007072  
H       4.793027        0.819038        2.814548  
