90
mapping.S.ts5 optimized geometry
C      -5.262491        1.405208        0.651652  
C      -4.369733        1.491793        1.714281  
C      -3.060979        1.972937        1.516428  
C      -2.643588        2.382686        0.228984  
C      -3.550481        2.274054       -0.829298  
C      -4.847501        1.795016       -0.625333  
H      -2.505013        1.695285        3.597391  
H      -6.267887        1.026074        0.809581  
H      -4.667757        1.179837        2.711384  
C      -2.146378        2.055064        2.635135  
C      -1.219516        2.887104       -0.017717  
H      -3.249331        2.563981       -1.831121  
H      -5.529224        1.719734       -1.467098  
C      -0.387369        3.097851        1.277431  
C      -0.894692        2.564367        2.532610  
O       0.698906        3.684231        1.226102  
H       1.646745        1.307786       -0.798887  
C      -0.514900        1.747622       -0.832787  
C       0.952443        2.031076       -1.238565  
H      -0.553426        0.826909       -0.247992  
H      -1.123576        1.574741       -1.724922  
H       1.261023        3.043063       -0.989074  
N       1.097427        1.910751       -2.739115  
O       0.989258        2.920136       -3.419391  
O       1.291159        0.778676       -3.209392  
C      -1.238132        4.206245       -0.821144  
H      -0.239599        2.638078        3.395702  
H      -1.678934        4.048053       -1.809042  
H      -1.828391        4.958989       -0.288577  
H      -0.222932        4.589150       -0.946592  
C       1.493000       -2.021326       -0.771855  
N       0.270764       -1.590802       -1.291355  
N       2.524528       -1.360152       -1.337918  
H       2.263960       -0.562760       -1.906611  
H       0.311443       -1.120446       -2.187213  
C      -1.016610       -1.698815       -0.756874  
C      -2.099978       -1.634774       -1.644806  
C      -1.270295       -1.755740        0.622446  
C      -3.408652       -1.639468       -1.160674  
H      -1.914522       -1.570459       -2.712755  
C      -2.585251       -1.786814        1.083199  
H      -0.448128       -1.756851        1.322817  
C      -3.670426       -1.735992        0.205717  
H      -4.685753       -1.750931        0.577558  
C       3.963618       -1.389799       -1.025479  
C       4.272164       -0.683309        0.331675  
C       4.592133       -2.791015       -1.122184  
H       4.410752       -0.799178       -1.826258  
C       5.798283       -0.698199        0.581342  
C       6.105676       -2.722925       -0.881205  
H       4.142768       -3.448530       -0.375524  
H       4.366560       -3.205357       -2.112073  
C       6.389445       -2.111399        0.496826  
H       5.999103       -0.251707        1.558673  
H       6.294855       -0.073867       -0.169651  
H       6.534321       -3.729555       -0.956582  
H       6.583293       -2.104256       -1.655693  
H       7.468893       -2.073757        0.689318  
H       5.938990       -2.746115        1.273450  
C      -2.808328       -1.922726        2.571398  
C      -4.535648       -1.587722       -2.165059  
F      -1.944497       -1.152823        3.293930  
F      -2.614268       -3.211042        2.985719  
F      -4.065091       -1.575249        2.955210  
F      -4.346094       -0.602449       -3.091650  
F      -4.633044       -2.757795       -2.866854  
F      -5.747818       -1.369266       -1.595803  
H       3.813865       -1.327747        1.088763  
N       3.616578        0.632830        0.465017  
C       4.212201        1.854485       -0.124927  
C       2.992460        0.881184        1.789184  
H       3.392544        2.583631       -0.098040  
H       2.744781        1.948149        1.803951  
S       1.599979       -3.261729        0.369737  
C       1.676335        0.106934        1.936318  
C       3.882540        0.588496        3.016431  
C       4.588681        1.702871       -1.604009  
C       5.371844        2.527586        0.647697  
H       3.773349        1.261967       -2.185462  
H       4.802166        2.695852       -2.014330  
H       5.483356        1.088267       -1.742063  
H       6.271523        1.907564        0.674309  
H       5.620658        3.473851        0.150330  
H       5.073854        2.760460        1.673892  
H       1.006231        0.313872        1.098377  
H       1.856590       -0.972030        1.965381  
H       1.169533        0.396193        2.863700  
H       3.358923        0.900516        3.928277  
H       4.084516       -0.486095        3.098913  
H       4.838617        1.114832        2.967073  
