81
mapping.R.ts3 optimized geometry
C      -3.496931        2.561684        0.371338  
C      -2.819881        3.463627       -0.442739  
C      -1.445949        3.712430       -0.256061  
C      -0.736243        3.045143        0.769786  
C      -1.432237        2.133168        1.571242  
C      -2.796322        1.895529        1.382624  
H      -1.335094        5.126215       -1.903969  
H      -4.555008        2.370442        0.219333  
H      -3.342434        3.985237       -1.240983  
C      -0.757749        4.662998       -1.105138  
C       0.763589        3.249861        0.948119  
H      -0.908381        1.598639        2.357162  
H      -3.310238        1.186157        2.024591  
C       1.333004        4.457579        0.173791  
C       0.540305        5.009523       -0.922670  
O       2.458714        4.898048        0.428851  
H       3.438304        0.821117       -0.389540  
C       1.450188        1.982606        0.256906  
C       2.902181        1.761416        0.585202  
H       1.336018        2.090148       -0.825590  
H       0.869575        1.109018        0.542181  
H       3.556133        2.622730        0.468552  
N       3.207077        1.110856        1.801454  
O       4.320394        1.295069        2.339036  
O       2.393931        0.248180        2.277330  
C       1.153399        3.350537        2.436001  
H       1.019542        5.758973       -1.547045  
H       0.579296        4.148986        2.917932  
H       0.960987        2.410321        2.956047  
H       2.216897        3.582963        2.521888  
C       0.813190       -1.791794       -0.373575  
N      -0.175577       -1.117808        0.332118  
N       2.052122       -1.459386        0.041073  
H       2.136863       -0.851349        0.866948  
H       0.083057       -0.790965        1.254686  
C      -1.554579       -1.155052        0.068411  
C      -2.421950       -1.665943        1.065460  
C      -2.127587       -0.651133       -1.118948  
C      -3.800586       -1.681938        0.881702  
C      -3.512474       -0.706265       -1.300522  
C      -4.345605       -1.217361       -0.313271  
C       3.272431       -2.126743       -0.394424  
C       4.466954       -1.151475       -0.455483  
C       3.613210       -3.313205        0.525409  
H       3.084107       -2.512478       -1.400073  
C       5.685902       -1.903447       -1.020815  
C       4.850423       -4.063942        0.017313  
H       3.791160       -2.931240        1.539624  
H       2.740018       -3.972622        0.560977  
C       6.039243       -3.105729       -0.129729  
H       6.547259       -1.233081       -1.077316  
H       5.459193       -2.247536       -2.038122  
H       5.099948       -4.881513        0.703260  
H       4.621068       -4.513183       -0.958907  
H       6.905858       -3.626337       -0.552513  
H       6.332070       -2.734967        0.862355  
H       4.704641       -0.813961        0.559990  
N       4.138181        0.124577       -1.197746  
C       3.448797       -0.058494       -2.499125  
C       5.319961        1.014666       -1.347039  
H       2.516084       -0.601667       -2.349327  
H       3.231148        0.932806       -2.904732  
H       4.094003       -0.602525       -3.197040  
H       6.013016        0.621599       -2.095160  
H       4.957383        1.996369       -1.661116  
H       5.816715        1.103335       -0.378127  
S       0.457899       -2.892098       -1.601486  
H      -3.942646       -0.318763       -2.216155  
H      -4.448258       -2.072786        1.656049  
C      -1.381740        0.036536       -2.259010  
C      -1.849242       -2.221577        2.358455  
C      -5.846156       -1.189397       -0.488081  
F      -1.377847       -0.730238       -3.383722  
F      -0.104843        0.378360       -1.991088  
F      -2.020278        1.197330       -2.600065  
F      -2.800364       -2.718397        3.181589  
F      -1.189119       -1.249253        3.071262  
F      -0.953118       -3.218218        2.137108  
F      -6.451243       -2.250579        0.108469  
F      -6.217657       -1.192211       -1.793601  
F      -6.385183       -0.064282        0.074170  
