81
mapping.R.ts5 optimized geometry
C      -3.496854        2.561620        0.371362  
C      -2.819783        3.463489       -0.442780  
C      -1.445855        3.712306       -0.256093  
C      -0.736171        3.045109        0.769828  
C      -1.432189        2.133210        1.571353  
C      -2.796271        1.895559        1.382726  
H      -1.334965        5.125958       -1.904114  
H      -4.554927        2.370368        0.219348  
H      -3.342316        3.985029       -1.241083  
C      -0.757638        4.662807       -1.105232  
C       0.763661        3.249823        0.948153  
H      -0.908364        1.598753        2.357342  
H      -3.310206        1.186255        2.024753  
C       1.333082        4.457502        0.173769  
C       0.540410        5.009355       -0.922758  
O       2.458777        4.898007        0.428835  
H       3.438315        0.821062       -0.389620  
C       1.450231        1.982531        0.256985  
C       2.902255        1.761397        0.585177  
H       1.335956        2.089976       -0.825509  
H       0.869664        1.108957        0.542394  
H       3.556171        2.622729        0.468469  
N       3.207264        1.110858        1.801408  
O       4.320596        1.295155        2.338937  
O       2.394207        0.248118        2.277327  
C       1.153499        3.350535        2.436023  
H       1.019657        5.758761       -1.547179  
H       0.961079        2.410337        2.956099  
H       2.217003        3.582939        2.521880  
H       0.579424        4.149010        2.917945  
C       0.813140       -1.791794       -0.373539  
N      -0.175623       -1.117780        0.332139  
N       2.052074       -1.459394        0.041107  
H       2.136836       -0.851327        0.866963  
H       0.082997       -0.790991        1.254730  
C      -1.554623       -1.155006        0.068425  
C      -2.422009       -1.665866        1.065478  
C      -2.127623       -0.651095       -1.118944  
C      -3.800644       -1.681837        0.881720  
C      -3.512510       -0.706201       -1.300515  
C      -4.345654       -1.217267       -0.313259  
C       3.272375       -2.126770       -0.394387  
C       4.466899       -1.151510       -0.455526  
C       3.613182       -3.313193        0.525488  
H       3.084024       -2.512554       -1.400012  
C       5.685821       -1.903510       -1.020876  
C       4.850377       -4.063952        0.017382  
H       3.791166       -2.931186        1.539681  
H       2.739990       -3.972608        0.561112  
C       6.039194       -3.105748       -0.129746  
H       6.547179       -1.233151       -1.077448  
H       5.459066       -2.247649       -2.038156  
H       5.099924       -4.881494        0.703356  
H       4.620987       -4.513236       -0.958809  
H       6.905793       -3.626379       -0.552535  
H       6.332057       -2.734940        0.862310  
H       4.704625       -0.813962        0.559926  
N       4.138111        0.124521       -1.197819  
C       3.448687       -0.058563       -2.499174  
C       5.319890        1.014605       -1.347163  
H       2.516026       -0.601822       -2.349362  
H       3.230933        0.932736       -2.904730  
H       4.093914       -0.602507       -3.197138  
H       6.012940        0.621499       -2.095267  
H       4.957307        1.996292       -1.661286  
H       5.816643        1.103323       -0.378255  
S       0.457833       -2.892120       -1.601424  
H      -3.942676       -0.318702       -2.216153  
H      -4.448323       -2.072663        1.656075  
C      -1.381757        0.036517       -2.259027  
C      -1.849314       -2.221500        2.358479  
C      -5.846203       -1.189264       -0.488080  
F      -1.377843       -0.730309       -3.383703  
F      -0.104864        0.378350       -1.991096  
F      -2.020283        1.197297       -2.600152  
F      -2.800445       -2.718279        3.181625  
F      -1.189155       -1.249186        3.071271  
F      -0.953219       -3.218170        2.137140  
F      -6.451340       -2.250342        0.108602  
F      -6.217693       -1.192232       -1.793604  
F      -6.385188       -0.064052        0.074017  
