65
mapping.R.ts2 optimized geometry
C       4.377485        2.422767       -0.010086  
C       3.559750        2.093488       -1.086380  
C       3.004030        0.803827       -1.198341  
C       3.284362       -0.175254       -0.218145  
C       4.097834        0.177178        0.862958  
C       4.640067        1.461161        0.971820  
H       1.940494        1.276315       -3.032365  
H       4.798934        3.420484        0.072176  
H       3.331260        2.830708       -1.851919  
C       2.144549        0.480687       -2.318262  
C       2.743130       -1.596400       -0.345292  
H       4.322221       -0.558701        1.629669  
H       5.270313        1.707656        1.822057  
C       1.821520       -1.835627       -1.568632  
C       1.593307       -0.744702       -2.503783  
O       1.309369       -2.947630       -1.731925  
H      -0.060348       -1.234907        0.515477  
C       1.970168       -2.018652        0.935588  
C       0.788055       -1.100506        1.211353  
H       1.633377       -3.049107        0.804388  
H       2.661654       -1.994548        1.782228  
H       1.064576       -0.043365        1.197331  
N       0.171210       -1.328654        2.574192  
O      -0.616189       -0.459021        2.978340  
O       0.439429       -2.344783        3.199966  
C       3.946810       -2.566145       -0.520176  
H       0.950588       -0.950155       -3.354358  
H       3.573684       -3.589698       -0.621684  
H       4.524043       -2.302450       -1.413010  
H       4.603046       -2.502410        0.353199  
C      -0.874073        2.108579        0.290254  
N       0.105957        2.303516        1.218760  
N      -1.711994        1.086338        0.569973  
H      -1.532708        0.554948        1.415697  
H       0.004178        1.821732        2.102130  
C       1.055894        3.408687        1.196923  
C      -2.942920        0.745432       -0.133671  
C      -3.209192       -0.769528       -0.007320  
C      -4.124462        1.558932        0.431730  
H      -2.808868        1.010120       -1.185838  
C      -4.548956       -1.121137       -0.693433  
C      -5.449517        1.189149       -0.246470  
H      -4.196120        1.357039        1.510176  
H      -3.897609        2.623320        0.305631  
C      -5.717959       -0.315665       -0.109949  
H      -4.733551       -2.196274       -0.591664  
H      -4.468718       -0.902479       -1.765874  
H      -6.269154        1.771204        0.192231  
H      -5.397194        1.451566       -1.312905  
H      -6.651355       -0.589147       -0.617463  
H      -5.839220       -0.566422        0.953896  
H      -3.317053       -0.988442        1.065850  
N      -2.051713       -1.567272       -0.465610  
C      -1.814697       -1.493041       -1.910243  
C      -2.128298       -2.960546       -0.022912  
H      -0.912262       -2.062713       -2.142989  
H      -2.648246       -1.911134       -2.502655  
H      -1.656777       -0.452962       -2.211062  
H      -2.271050       -2.990634        1.063691  
H      -2.952356       -3.524541       -0.498142  
H      -1.186226       -3.462090       -0.271251  
H       1.613259        3.409071        0.258269  
H       0.551333        4.377462        1.308832  
H       1.752883        3.258595        2.025626  
S      -0.984590        3.064989       -1.118925  
