65
mapping.R.ts5 optimized geometry
C      -4.883297       -2.226876       -0.088795  
C      -3.823044       -2.170684       -0.989335  
C      -3.079573       -0.986567       -1.150546  
C      -3.405258        0.165270       -0.394535  
C      -4.465903        0.087919        0.512234  
C      -5.203469       -1.091820        0.662873  
H      -1.746168       -1.869092       -2.622062  
H      -5.451593       -3.144615        0.032298  
H      -3.550018       -3.043888       -1.576209  
C      -1.992826       -0.943270       -2.107586  
C      -2.534161        1.418000       -0.492074  
H      -4.729774        0.951507        1.113875  
H      -6.027103       -1.121143        1.371196  
C      -1.648234        1.459932       -1.766077  
C      -1.321313        0.195000       -2.408414  
O      -1.179478        2.529231       -2.166038  
H       0.423893        2.024493        0.126196  
C      -1.541070        1.282217        0.720461  
C      -0.425974        2.335520        0.750061  
H      -1.092953        0.289732        0.695819  
H      -2.150869        1.356742        1.627117  
H      -0.765815        3.335439        0.489761  
N       0.157756        2.439233        2.142609  
O       0.198728        3.537713        2.682468  
O       0.583673        1.399643        2.664259  
C      -3.352046        2.717619       -0.374176  
H      -0.556411        0.213924       -3.177872  
H      -3.804842        2.800041        0.617829  
H      -2.707220        3.583714       -0.536494  
H      -4.146328        2.734096       -1.127384  
C       0.553345       -1.874341        0.822441  
N      -0.330029       -1.717953        1.844854  
N       1.498999       -0.906586        0.739295  
H       1.429811       -0.127452        1.384311  
H      -0.213933       -0.911291        2.442630  
C      -1.564567       -2.475740        2.011686  
C       2.748965       -0.996245       -0.012892  
C       3.379267        0.404870       -0.158870  
C       3.739976       -1.950632        0.684232  
H       2.515156       -1.402301       -1.002316  
C       4.702623        0.284317       -0.949690  
C       5.059375       -2.060024       -0.089656  
H       3.934201       -1.563786        1.694738  
H       3.259825       -2.929312        0.784292  
C       5.690923       -0.672907       -0.267925  
H       5.148547        1.278915       -1.059401  
H       4.480516       -0.087796       -1.957816  
H       5.746699       -2.734577        0.435273  
H       4.862587       -2.498933       -1.078334  
H       6.614197       -0.739676       -0.856726  
H       5.961728       -0.270660        0.719179  
H       3.626163        0.751603        0.855685  
N       2.425958        1.397457       -0.697225  
C       2.051719        1.166800       -2.095178  
C       2.895334        2.771286       -0.510914  
H       1.246501        1.858224       -2.361823  
H       2.893282        1.323162       -2.793664  
H       1.680614        0.145665       -2.216816  
H       3.151104        2.931378        0.542935  
H       3.779224        3.017604       -1.127439  
H       2.090607        3.462885       -0.787501  
H      -2.269864       -2.283861        1.195390  
H      -1.350884       -3.548403        2.043853  
H      -2.012944       -2.164131        2.958913  
S       0.447196       -3.179615       -0.271602  
