65
mapping.R.ts1 optimized geometry
C      -6.774623       -1.038104       -0.514704  
C      -5.719273       -1.887323       -0.199480  
C      -4.394813       -1.406125       -0.164415  
C      -4.122589       -0.041959       -0.443892  
C      -5.200377        0.797100       -0.754420  
C      -6.509110        0.308208       -0.797064  
H      -3.546768       -3.338615        0.358603  
H      -7.793190       -1.414996       -0.543596  
H      -5.901295       -2.937132        0.019181  
C      -3.301384       -2.305034        0.120614  
C      -2.720442        0.501014       -0.277087  
H      -5.025585        1.846246       -0.967802  
H      -7.323766        0.981551       -1.050761  
C      -1.631134       -0.565845       -0.325965  
C      -2.001238       -1.918187        0.053597  
O      -0.463792       -0.255492       -0.625537  
H       1.074923       -1.096321       -0.355631  
C      -2.681820        1.041975        1.276111  
C      -1.431446        1.698085        1.685235  
H      -2.914496        0.190758        1.920993  
H      -3.505335        1.762945        1.310759  
H      -1.237140        2.739727        1.474496  
N      -0.440670        1.038858        2.294016  
O       0.658515        1.697753        2.609875  
O      -0.519136       -0.201492        2.588018  
C      -2.391672        1.678117       -1.205603  
H      -1.207591       -2.638080        0.211717  
H      -1.351177        1.969623       -1.061399  
H      -2.538839        1.393986       -2.253242  
H      -3.027356        2.539582       -0.980881  
C       2.100907        1.819959       -0.434425  
N       1.282804        2.804978       -0.004149  
N       2.386832        0.892180        0.524946  
H       1.904427        1.033963        1.423238  
H       0.949928        2.731728        0.960718  
C       0.731759        3.854826       -0.843413  
C       3.448890       -0.108912        0.529756  
C       3.184508       -1.267278       -0.452121  
C       4.860616        0.479957        0.322090  
H       3.428917       -0.526761        1.542095  
C       4.277694       -2.337725       -0.372988  
C       5.941458       -0.605565        0.397503  
H       4.897090        0.971055       -0.654304  
H       5.014734        1.245639        1.090429  
C       5.657979       -1.710264       -0.627115  
H       4.088325       -3.127846       -1.105381  
H       4.286049       -2.796392        0.623413  
H       6.926036       -0.158534        0.217454  
H       5.960967       -1.045235        1.405437  
H       6.421655       -2.494363       -0.576769  
H       5.685629       -1.286611       -1.640024  
H       3.133534       -0.853688       -1.461881  
N       1.787099       -1.854358       -0.221813  
C       1.560187       -2.375032        1.167802  
C       1.451378       -2.886850       -1.254748  
H       0.607993       -2.903340        1.181774  
H       2.364638       -3.060325        1.432008  
H       1.498905       -1.528593        1.850869  
H       1.707845       -2.486607       -2.237084  
H       2.011853       -3.799332       -1.051406  
H       0.379809       -3.079295       -1.197975  
H       1.520538        4.518646       -1.217536  
H       0.200718        3.437121       -1.706782  
H       0.033908        4.433188       -0.231616  
S       2.671516        1.770520       -2.048160  
